<?xml version="1.0" encoding="UTF-8"?>

<!-- generated on 2025-05-25 19:19:35 by Eclipse SUMO netconvert Version 1.23.1
<netconvertConfiguration xmlns:xsi="http://www.w3.org/2001/XMLSchema-instance" xsi:noNamespaceSchemaLocation="http://sumo.dlr.de/xsd/netconvertConfiguration.xsd">

    <input>
        <type-files value="osmNetconvert.typ.xml"/>
        <osm-files value="map.osm"/>
    </input>

    <output>
        <output-file value="test.net.xml"/>
    </output>

    <projection>
        <proj.utm value="true"/>
    </projection>

    <report>
        <xml-validation value="never"/>
    </report>

</netconvertConfiguration>
-->

<net version="1.20" junctionCornerDetail="5" limitTurnSpeed="5.50" xmlns:xsi="http://www.w3.org/2001/XMLSchema-instance" xsi:noNamespaceSchemaLocation="http://sumo.dlr.de/xsd/net_file.xsd">

    <location netOffset="-353067.77,-2769414.15" convBoundary="0.00,0.00,1396.79,923.41" origBoundary="121.543599,25.033273,121.557421,25.041545" projParameter="+proj=utm +zone=51 +ellps=WGS84 +datum=WGS84 +units=m +no_defs"/>

    <type id="highway.footway" priority="1" numLanes="1" speed="2.78" allow="pedestrian" oneway="1" width="2.00"/>
    <type id="highway.path" priority="1" numLanes="1" speed="5.56" allow="pedestrian bicycle" oneway="0" width="2.00"/>
    <type id="highway.pedestrian" priority="1" numLanes="1" speed="2.78" allow="pedestrian" oneway="1" width="2.00"/>
    <type id="highway.residential" priority="3" numLanes="1" speed="13.89" disallow="tram rail_urban rail rail_electric rail_fast ship container cable_car subway aircraft wheelchair scooter drone" oneway="0"/>
    <type id="highway.secondary" priority="11" numLanes="1" speed="27.78" disallow="tram rail_urban rail rail_electric rail_fast ship container cable_car subway aircraft wheelchair scooter drone" oneway="0"/>
    <type id="highway.secondary_link" priority="6" numLanes="1" speed="22.22" disallow="tram rail_urban rail rail_electric rail_fast ship container cable_car subway aircraft wheelchair scooter drone" oneway="0"/>
    <type id="highway.service" priority="1" numLanes="1" speed="5.56" allow="pedestrian delivery bicycle" oneway="0"/>
    <type id="highway.tertiary" priority="10" numLanes="1" speed="22.22" disallow="tram rail_urban rail rail_electric rail_fast ship container cable_car subway aircraft wheelchair scooter drone" oneway="0"/>
    <type id="highway.unclassified" priority="4" numLanes="1" speed="13.89" disallow="tram rail_urban rail rail_electric rail_fast ship container cable_car subway aircraft wheelchair scooter drone" oneway="0"/>

    <edge id=":10100163867_0" function="internal">
        <lane id=":10100163867_0_0" index="0" allow="pedestrian delivery bicycle" speed="5.56" length="6.01" shape="806.36,156.00 800.35,156.19"/>
    </edge>
    <edge id=":10100163868_0" function="internal">
        <lane id=":10100163868_0_0" index="0" allow="pedestrian delivery bicycle" speed="5.56" length="5.04" shape="820.89,155.50 815.86,155.68"/>
    </edge>
    <edge id=":10100163869_0" function="internal">
        <lane id=":10100163869_0_0" index="0" allow="pedestrian delivery bicycle" speed="5.56" length="4.63" shape="808.36,153.07 808.21,148.44"/>
    </edge>
    <edge id=":10100163869_1" function="internal">
        <lane id=":10100163869_1_0" index="0" allow="pedestrian delivery bicycle" speed="3.65" length="1.44" shape="808.36,153.07 809.12,151.84"/>
    </edge>
    <edge id=":10100163869_4" function="internal">
        <lane id=":10100163869_4_0" index="0" allow="pedestrian delivery bicycle" speed="3.65" length="3.23" shape="809.12,151.84 809.91,151.41 810.72,151.79 811.56,152.96"/>
    </edge>
    <edge id=":10100163869_2" function="internal">
        <lane id=":10100163869_2_0" index="0" allow="pedestrian delivery bicycle" speed="5.56" length="4.63" shape="811.40,148.33 811.56,152.96"/>
    </edge>
    <edge id=":10100163869_3" function="internal">
        <lane id=":10100163869_3_0" index="0" allow="pedestrian delivery bicycle" speed="3.65" length="1.44" shape="811.40,148.33 810.65,149.56"/>
    </edge>
    <edge id=":10100163869_5" function="internal">
        <lane id=":10100163869_5_0" index="0" allow="pedestrian delivery bicycle" speed="3.65" length="3.23" shape="810.65,149.56 809.86,149.98 809.05,149.61 808.21,148.44"/>
    </edge>
    <edge id=":10100163870_0" function="internal">
        <lane id=":10100163870_0_0" index="0" allow="pedestrian delivery bicycle" speed="5.56" length="4.96" shape="808.73,163.99 808.56,159.03"/>
    </edge>
    <edge id=":10100163870_1" function="internal">
        <lane id=":10100163870_1_0" index="0" allow="pedestrian delivery bicycle" speed="3.65" length="1.44" shape="808.73,163.99 809.49,162.77"/>
    </edge>
    <edge id=":10100163870_4" function="internal">
        <lane id=":10100163870_4_0" index="0" allow="pedestrian delivery bicycle" speed="3.65" length="3.23" shape="809.49,162.77 810.28,162.34 811.09,162.71 811.93,163.88"/>
    </edge>
    <edge id=":10100163870_2" function="internal">
        <lane id=":10100163870_2_0" index="0" allow="pedestrian delivery bicycle" speed="5.56" length="4.97" shape="811.76,158.92 811.93,163.88"/>
    </edge>
    <edge id=":10100163870_3" function="internal">
        <lane id=":10100163870_3_0" index="0" allow="pedestrian delivery bicycle" speed="3.65" length="1.44" shape="811.76,158.92 811.00,160.15"/>
    </edge>
    <edge id=":10100163870_5" function="internal">
        <lane id=":10100163870_5_0" index="0" allow="pedestrian delivery bicycle" speed="3.65" length="3.23" shape="811.00,160.15 810.22,160.57 809.40,160.20 808.56,159.03"/>
    </edge>
    <edge id=":10100163872_0" function="internal">
        <lane id=":10100163872_0_0" index="0" allow="pedestrian delivery bicycle" speed="5.56" length="5.08" shape="806.94,110.96 806.77,105.88"/>
    </edge>
    <edge id=":10100163872_1" function="internal">
        <lane id=":10100163872_1_0" index="0" allow="pedestrian delivery bicycle" speed="3.65" length="1.44" shape="806.94,110.96 807.70,109.73"/>
    </edge>
    <edge id=":10100163872_4" function="internal">
        <lane id=":10100163872_4_0" index="0" allow="pedestrian delivery bicycle" speed="3.65" length="3.23" shape="807.70,109.73 808.49,109.31 809.30,109.68 810.14,110.86"/>
    </edge>
    <edge id=":10100163872_2" function="internal">
        <lane id=":10100163872_2_0" index="0" allow="pedestrian delivery bicycle" speed="5.56" length="5.09" shape="809.97,105.77 810.14,110.86"/>
    </edge>
    <edge id=":10100163872_3" function="internal">
        <lane id=":10100163872_3_0" index="0" allow="pedestrian delivery bicycle" speed="3.65" length="1.44" shape="809.97,105.77 809.21,107.00"/>
    </edge>
    <edge id=":10100163872_5" function="internal">
        <lane id=":10100163872_5_0" index="0" allow="pedestrian delivery bicycle" speed="3.65" length="3.23" shape="809.21,107.00 808.43,107.42 807.61,107.05 806.77,105.88"/>
    </edge>
    <edge id=":10100163873_0" function="internal">
        <lane id=":10100163873_0_0" index="0" allow="pedestrian delivery bicycle" speed="5.56" length="5.75" shape="807.30,121.55 807.10,115.80"/>
    </edge>
    <edge id=":10100163873_1" function="internal">
        <lane id=":10100163873_1_0" index="0" allow="pedestrian delivery bicycle" speed="3.65" length="1.44" shape="807.30,121.55 808.06,120.32"/>
    </edge>
    <edge id=":10100163873_4" function="internal">
        <lane id=":10100163873_4_0" index="0" allow="pedestrian delivery bicycle" speed="3.65" length="3.23" shape="808.06,120.32 808.84,119.89 809.66,120.26 810.50,121.44"/>
    </edge>
    <edge id=":10100163873_2" function="internal">
        <lane id=":10100163873_2_0" index="0" allow="pedestrian delivery bicycle" speed="5.56" length="5.75" shape="810.30,115.69 810.50,121.44"/>
    </edge>
    <edge id=":10100163873_3" function="internal">
        <lane id=":10100163873_3_0" index="0" allow="pedestrian delivery bicycle" speed="3.65" length="1.44" shape="810.30,115.69 809.54,116.92"/>
    </edge>
    <edge id=":10100163873_5" function="internal">
        <lane id=":10100163873_5_0" index="0" allow="pedestrian delivery bicycle" speed="3.65" length="3.23" shape="809.54,116.92 808.76,117.34 807.94,116.97 807.10,115.80"/>
    </edge>
    <edge id=":10100163877_0" function="internal">
        <lane id=":10100163877_0_0" index="0" allow="pedestrian delivery bicycle" speed="5.56" length="4.54" shape="809.93,189.92 809.67,188.61 809.55,187.69 809.50,186.77 809.46,185.42"/>
    </edge>
    <edge id=":10100163877_1" function="internal">
        <lane id=":10100163877_1_0" index="0" allow="pedestrian delivery bicycle" speed="3.65" length="1.44" shape="809.93,189.92 810.46,188.58"/>
    </edge>
    <edge id=":10100163877_4" function="internal">
        <lane id=":10100163877_4_0" index="0" allow="pedestrian delivery bicycle" speed="3.65" length="3.23" shape="810.46,188.58 811.16,188.03 812.03,188.25 813.06,189.26"/>
    </edge>
    <edge id=":10100163877_2" function="internal">
        <lane id=":10100163877_2_0" index="0" allow="pedestrian delivery bicycle" speed="5.56" length="3.97" shape="812.66,185.32 812.69,186.49 812.73,187.30 812.83,188.10 813.06,189.26"/>
    </edge>
    <edge id=":10100163877_3" function="internal">
        <lane id=":10100163877_3_0" index="0" allow="pedestrian delivery bicycle" speed="3.65" length="1.44" shape="812.66,185.32 811.90,186.54"/>
    </edge>
    <edge id=":10100163877_5" function="internal">
        <lane id=":10100163877_5_0" index="0" allow="pedestrian delivery bicycle" speed="3.65" length="3.23" shape="811.90,186.54 811.11,186.97 810.30,186.60 809.46,185.42"/>
    </edge>
    <edge id=":10100163880_0" function="internal">
        <lane id=":10100163880_0_0" index="0" allow="pedestrian delivery bicycle" speed="5.56" length="4.93" shape="810.55,200.05 810.45,195.13"/>
    </edge>
    <edge id=":10100163880_1" function="internal">
        <lane id=":10100163880_1_0" index="0" allow="pedestrian delivery bicycle" speed="3.65" length="1.44" shape="810.55,200.05 811.32,198.84"/>
    </edge>
    <edge id=":10100163880_4" function="internal">
        <lane id=":10100163880_4_0" index="0" allow="pedestrian delivery bicycle" speed="3.65" length="3.23" shape="811.32,198.84 812.12,198.42 812.92,198.81 813.75,199.99"/>
    </edge>
    <edge id=":10100163880_2" function="internal">
        <lane id=":10100163880_2_0" index="0" allow="pedestrian delivery bicycle" speed="5.56" length="4.93" shape="813.65,195.07 813.75,199.99"/>
    </edge>
    <edge id=":10100163880_3" function="internal">
        <lane id=":10100163880_3_0" index="0" allow="pedestrian delivery bicycle" speed="3.65" length="1.44" shape="813.65,195.07 812.88,196.28"/>
    </edge>
    <edge id=":10100163880_5" function="internal">
        <lane id=":10100163880_5_0" index="0" allow="pedestrian delivery bicycle" speed="3.65" length="3.23" shape="812.88,196.28 812.08,196.70 811.28,196.31 810.45,195.13"/>
    </edge>
    <edge id=":10100163881_0" function="internal">
        <lane id=":10100163881_0_0" index="0" allow="pedestrian delivery bicycle" speed="5.56" length="6.21" shape="801.93,192.34 808.14,192.08"/>
    </edge>
    <edge id=":10100163882_0" function="internal">
        <lane id=":10100163882_0_0" index="0" allow="pedestrian delivery bicycle" speed="5.56" length="5.19" shape="817.43,191.83 822.62,191.73"/>
    </edge>
    <edge id=":10155016113_0" function="internal">
        <lane id=":10155016113_0_0" index="0" disallow="tram rail_urban rail rail_electric rail_fast ship container cable_car subway aircraft wheelchair scooter drone" speed="6.67" length="3.55" shape="900.34,328.13 898.40,325.15"/>
    </edge>
    <edge id=":10155016113_1" function="internal">
        <lane id=":10155016113_1_0" index="0" disallow="tram rail_urban rail rail_electric rail_fast ship container cable_car subway aircraft wheelchair scooter drone" speed="8.57" length="6.11" shape="899.81,322.27 901.32,323.16 902.15,324.07 902.69,325.26 903.32,326.97"/>
    </edge>
    <edge id=":10652197963_0" function="internal">
        <lane id=":10652197963_0_0" index="0" allow="pedestrian delivery bicycle" speed="5.56" length="5.00" shape="794.03,838.50 789.03,838.65"/>
    </edge>
    <edge id=":10652197964_0" function="internal">
        <lane id=":10652197964_0_0" index="0" allow="pedestrian delivery bicycle" speed="5.56" length="5.00" shape="787.61,786.70 792.60,786.54"/>
    </edge>
    <edge id=":2787383721_0" function="internal">
        <lane id=":2787383721_0_0" index="0" allow="pedestrian delivery bicycle" speed="5.56" length="5.00" shape="773.96,839.08 768.96,839.23"/>
    </edge>
    <edge id=":2787426126_0" function="internal">
        <lane id=":2787426126_0_0" index="0" allow="pedestrian delivery bicycle" speed="5.56" length="4.95" shape="728.10,812.55 728.20,817.50"/>
    </edge>
    <edge id=":2969144319_0" function="internal">
        <lane id=":2969144319_0_0" index="0" allow="pedestrian delivery bicycle" speed="5.03" length="5.01" shape="553.83,340.36 554.05,341.72 554.66,342.67 555.64,343.23 557.01,343.39"/>
    </edge>
    <edge id=":2969144319_1" function="internal">
        <lane id=":2969144319_1_0" index="0" disallow="tram rail_urban rail rail_electric rail_fast ship container cable_car subway aircraft wheelchair scooter drone" speed="27.78" length="6.21" shape="553.83,340.36 553.97,346.56"/>
        <lane id=":2969144319_1_1" index="1" disallow="tram rail_urban rail rail_electric rail_fast ship container cable_car subway aircraft wheelchair scooter drone" speed="27.78" length="6.21" shape="550.63,340.42 550.77,346.64"/>
    </edge>
    <edge id=":3083631825_0" function="internal">
        <lane id=":3083631825_0_0" index="0" disallow="pedestrian tram rail_urban rail rail_electric rail_fast ship container cable_car subway aircraft wheelchair scooter drone" speed="18.14" length="4.66" shape="588.33,527.27 587.53,527.99 587.17,528.64 586.88,529.38 586.31,530.33"/>
        <lane id=":3083631825_0_1" index="1" disallow="pedestrian tram rail_urban rail rail_electric rail_fast ship container cable_car subway aircraft wheelchair scooter drone" speed="20.10" length="4.66" shape="586.36,524.74 585.36,525.61 584.86,526.39 584.46,527.27 583.74,528.43"/>
        <lane id=":3083631825_0_2" index="2" disallow="pedestrian tram rail_urban rail rail_electric rail_fast ship container cable_car subway aircraft wheelchair scooter drone" speed="22.36" length="4.66" shape="586.36,524.74 584.83,525.37 583.54,525.39 582.36,525.53 581.17,526.52"/>
    </edge>
    <edge id=":3083631825_3" function="internal">
        <lane id=":3083631825_3_0" index="0" disallow="pedestrian tram rail_urban rail rail_electric rail_fast ship container cable_car subway aircraft wheelchair scooter drone" speed="24.57" length="8.96" shape="586.52,520.25 586.32,523.30 587.02,525.59 587.42,527.73 586.31,530.33"/>
        <lane id=":3083631825_3_1" index="1" disallow="pedestrian tram rail_urban rail rail_electric rail_fast ship container cable_car subway aircraft wheelchair scooter drone" speed="23.71" length="8.96" shape="583.52,519.09 583.40,521.92 584.19,524.04 584.70,526.02 583.74,528.43"/>
        <lane id=":3083631825_3_2" index="2" disallow="pedestrian tram rail_urban rail rail_electric rail_fast ship container cable_car subway aircraft wheelchair scooter drone" speed="22.84" length="8.96" shape="580.53,517.93 580.48,520.53 581.36,522.48 581.99,524.30 581.17,526.52"/>
        <lane id=":3083631825_3_3" index="3" disallow="pedestrian tram rail_urban rail rail_electric rail_fast ship container cable_car subway aircraft wheelchair scooter drone" speed="21.99" length="8.96" shape="577.53,516.77 577.57,519.16 578.54,520.93 579.28,522.58 578.60,524.61"/>
        <lane id=":3083631825_3_4" index="4" disallow="pedestrian tram rail_urban rail rail_electric rail_fast ship container cable_car subway aircraft wheelchair scooter drone" speed="20.49" length="8.96" shape="574.53,515.61 576.03,522.71"/>
    </edge>
    <edge id=":3083631827_0" function="internal">
        <lane id=":3083631827_0_0" index="0" disallow="pedestrian tram rail_urban rail rail_electric rail_fast ship container cable_car subway aircraft wheelchair scooter drone" speed="27.78" length="18.22" shape="569.01,552.13 564.29,555.78 560.16,558.10 556.75,560.05 554.19,562.55"/>
    </edge>
    <edge id=":3083631827_1" function="internal">
        <lane id=":3083631827_1_0" index="0" disallow="pedestrian tram rail_urban rail rail_electric rail_fast ship container cable_car subway aircraft wheelchair scooter drone" speed="25.95" length="25.87" shape="569.01,552.13 563.02,557.53 558.45,560.76 553.29,562.93 545.53,565.15"/>
        <lane id=":3083631827_1_1" index="1" disallow="pedestrian tram rail_urban rail rail_electric rail_fast ship container cable_car subway aircraft wheelchair scooter drone" speed="25.61" length="25.87" shape="566.83,549.78 560.98,555.01 556.50,558.09 551.45,560.15 543.89,562.28"/>
        <lane id=":3083631827_1_2" index="2" disallow="pedestrian tram rail_urban rail rail_electric rail_fast ship container cable_car subway aircraft wheelchair scooter drone" speed="25.25" length="25.87" shape="564.65,547.44 558.95,552.49 554.56,555.43 549.61,557.36 542.24,559.41"/>
        <lane id=":3083631827_1_3" index="3" disallow="pedestrian tram rail_urban rail rail_electric rail_fast ship container cable_car subway aircraft wheelchair scooter drone" speed="24.90" length="25.87" shape="562.48,545.10 556.92,549.98 552.61,552.77 547.77,554.58 540.59,556.53"/>
        <lane id=":3083631827_1_4" index="4" disallow="pedestrian tram rail_urban rail rail_electric rail_fast ship container cable_car subway aircraft wheelchair scooter drone" speed="24.54" length="25.87" shape="560.30,542.75 554.88,547.46 550.67,550.10 545.93,551.79 538.95,553.66"/>
    </edge>
    <edge id=":3083631829_0" function="internal">
        <lane id=":3083631829_0_0" index="0" disallow="pedestrian tram rail_urban rail rail_electric rail_fast ship container cable_car subway aircraft wheelchair scooter drone" speed="27.78" length="20.88" shape="506.31,565.74 502.46,561.20 499.32,558.56 495.91,556.18 491.21,552.43"/>
        <lane id=":3083631829_0_1" index="1" disallow="pedestrian tram rail_urban rail rail_electric rail_fast ship container cable_car subway aircraft wheelchair scooter drone" speed="27.78" length="20.88" shape="508.87,563.81 504.89,559.12 501.67,556.38 498.16,553.90 493.32,550.02"/>
        <lane id=":3083631829_0_2" index="2" disallow="pedestrian tram rail_urban rail rail_electric rail_fast ship container cable_car subway aircraft wheelchair scooter drone" speed="27.78" length="20.88" shape="511.42,561.88 507.33,557.04 504.02,554.19 500.42,551.63 495.43,547.62"/>
    </edge>
    <edge id=":3083631829_3" function="internal">
        <lane id=":3083631829_3_0" index="0" disallow="pedestrian tram rail_urban rail rail_electric rail_fast ship container cable_car subway aircraft wheelchair scooter drone" speed="27.78" length="9.55" shape="499.96,558.71 497.19,557.09 495.35,555.89 493.63,554.53 491.21,552.43"/>
        <lane id=":3083631829_3_1" index="1" disallow="pedestrian tram rail_urban rail rail_electric rail_fast ship container cable_car subway aircraft wheelchair scooter drone" speed="27.78" length="9.55" shape="501.56,555.94 498.96,554.41 497.22,553.28 495.60,552.00 493.32,550.02"/>
        <lane id=":3083631829_3_2" index="2" disallow="pedestrian tram rail_urban rail rail_electric rail_fast ship container cable_car subway aircraft wheelchair scooter drone" speed="27.78" length="9.55" shape="503.16,553.17 500.72,551.74 499.09,550.68 497.57,549.48 495.43,547.62"/>
        <lane id=":3083631829_3_3" index="3" disallow="pedestrian tram rail_urban rail rail_electric rail_fast ship container cable_car subway aircraft wheelchair scooter drone" speed="27.78" length="9.55" shape="504.77,550.40 502.49,549.06 500.97,548.07 499.54,546.95 497.54,545.21"/>
        <lane id=":3083631829_3_4" index="4" disallow="pedestrian tram rail_urban rail rail_electric rail_fast ship container cable_car subway aircraft wheelchair scooter drone" speed="27.78" length="9.55" shape="506.37,547.63 504.25,546.39 502.84,545.47 501.51,544.42 499.65,542.81"/>
    </edge>
    <edge id=":3083631831_0" function="internal">
        <lane id=":3083631831_0_0" index="0" disallow="pedestrian tram rail_urban rail rail_electric rail_fast ship container cable_car subway aircraft wheelchair scooter drone" speed="27.78" length="9.70" shape="557.60,467.27 559.99,468.58 562.36,467.98 564.84,467.29 567.54,468.28"/>
        <lane id=":3083631831_0_1" index="1" disallow="pedestrian tram rail_urban rail rail_electric rail_fast ship container cable_car subway aircraft wheelchair scooter drone" speed="27.78" length="9.70" shape="557.60,467.27 559.55,468.80 561.36,469.18 563.25,469.46 565.47,470.72"/>
    </edge>
    <edge id=":3083631831_2" function="internal">
        <lane id=":3083631831_2_0" index="0" disallow="pedestrian tram rail_urban rail rail_electric rail_fast ship container cable_car subway aircraft wheelchair scooter drone" speed="27.78" length="8.08" shape="560.29,463.09 562.55,464.48 564.06,465.47 565.51,466.58 567.54,468.28"/>
        <lane id=":3083631831_2_1" index="1" disallow="pedestrian tram rail_urban rail rail_electric rail_fast ship container cable_car subway aircraft wheelchair scooter drone" speed="27.78" length="8.08" shape="558.56,465.78 560.71,467.10 562.16,468.05 563.54,469.10 565.47,470.72"/>
        <lane id=":3083631831_2_2" index="2" disallow="pedestrian tram rail_urban rail rail_electric rail_fast ship container cable_car subway aircraft wheelchair scooter drone" speed="27.78" length="8.08" shape="556.83,468.48 558.88,469.73 560.25,470.63 561.56,471.62 563.40,473.16"/>
        <lane id=":3083631831_2_3" index="3" disallow="pedestrian tram rail_urban rail rail_electric rail_fast ship container cable_car subway aircraft wheelchair scooter drone" speed="27.78" length="8.08" shape="555.10,471.17 557.04,472.36 558.35,473.21 559.59,474.14 561.34,475.60"/>
        <lane id=":3083631831_2_4" index="4" disallow="pedestrian tram rail_urban rail rail_electric rail_fast ship container cable_car subway aircraft wheelchair scooter drone" speed="27.78" length="8.08" shape="553.38,473.86 555.21,474.98 556.44,475.78 557.62,476.67 559.27,478.04"/>
    </edge>
    <edge id=":3083634635_0" function="internal">
        <lane id=":3083634635_0_0" index="0" disallow="pedestrian tram rail_urban rail rail_electric rail_fast ship container cable_car subway aircraft wheelchair scooter drone" speed="25.00" length="13.32" shape="469.11,489.77 472.34,488.21 474.55,487.07 476.51,485.61 479.01,483.08"/>
        <lane id=":3083634635_0_1" index="1" disallow="pedestrian tram rail_urban rail rail_electric rail_fast ship container cable_car subway aircraft wheelchair scooter drone" speed="25.00" length="13.32" shape="470.47,492.67 474.03,490.94 476.46,489.67 478.62,488.04 481.37,485.24"/>
        <lane id=":3083634635_0_2" index="2" disallow="pedestrian tram rail_urban rail rail_electric rail_fast ship container cable_car subway aircraft wheelchair scooter drone" speed="25.00" length="13.32" shape="470.47,492.67 474.55,491.23 477.69,490.80 480.53,489.99 483.73,487.40"/>
    </edge>
    <edge id=":3083634635_3" function="internal">
        <lane id=":3083634635_3_0" index="0" disallow="pedestrian tram rail_urban rail rail_electric rail_fast ship container cable_car subway aircraft wheelchair scooter drone" speed="20.04" length="13.37" shape="475.08,496.95 475.83,492.60 475.95,489.41 476.62,486.51 479.01,483.08"/>
        <lane id=":3083634635_3_1" index="1" disallow="pedestrian tram rail_urban rail rail_electric rail_fast ship container cable_car subway aircraft wheelchair scooter drone" speed="19.55" length="13.37" shape="477.97,498.51 478.63,494.36 478.63,491.30 479.15,488.52 481.37,485.24"/>
        <lane id=":3083634635_3_2" index="2" disallow="pedestrian tram rail_urban rail rail_electric rail_fast ship container cable_car subway aircraft wheelchair scooter drone" speed="19.07" length="13.37" shape="480.85,500.06 481.43,496.12 481.31,493.18 481.68,490.52 483.73,487.40"/>
        <lane id=":3083634635_3_3" index="3" disallow="pedestrian tram rail_urban rail rail_electric rail_fast ship container cable_car subway aircraft wheelchair scooter drone" speed="18.58" length="13.37" shape="483.74,501.62 484.23,497.88 483.99,495.07 484.21,492.52 486.09,489.56"/>
        <lane id=":3083634635_3_4" index="4" disallow="pedestrian tram rail_urban rail rail_electric rail_fast ship container cable_car subway aircraft wheelchair scooter drone" speed="18.08" length="13.37" shape="486.62,503.18 487.02,499.63 486.66,496.96 486.74,494.53 488.46,491.71"/>
    </edge>
    <edge id=":3091222623_0" function="internal">
        <lane id=":3091222623_0_0" index="0" allow="pedestrian delivery bicycle" speed="5.56" length="5.00" shape="82.36,609.23 82.52,614.22"/>
    </edge>
    <edge id=":3149252109_0" function="internal">
        <lane id=":3149252109_0_0" index="0" allow="pedestrian delivery bicycle" speed="5.56" length="0.10" shape="1024.11,402.81 1024.11,402.81"/>
    </edge>
    <edge id=":3149252110_0" function="internal">
        <lane id=":3149252110_0_0" index="0" allow="pedestrian delivery bicycle" speed="5.56" length="0.80" shape="1003.26,403.52 1003.37,403.32 1003.47,403.18 1003.59,403.07 1003.78,402.94"/>
    </edge>
    <edge id=":3149252111_0" function="internal">
        <lane id=":3149252111_0_0" index="0" disallow="tram rail_urban rail rail_electric rail_fast ship container cable_car subway aircraft wheelchair scooter drone" speed="13.89" length="6.63" shape="1002.21,416.80 995.58,417.00"/>
    </edge>
    <edge id=":3149252111_1" function="internal">
        <lane id=":3149252111_1_0" index="0" allow="pedestrian delivery bicycle" speed="5.78" length="2.58" shape="1002.21,416.80 999.80,416.44 999.70,416.34"/>
    </edge>
    <edge id=":3149252111_4" function="internal">
        <lane id=":3149252111_4_0" index="0" allow="pedestrian delivery bicycle" speed="5.78" length="7.05" shape="999.70,416.34 998.60,415.18 998.62,413.03 999.86,409.97"/>
    </edge>
    <edge id=":3149252111_2" function="internal">
        <lane id=":3149252111_2_0" index="0" allow="pedestrian delivery bicycle" speed="6.85" length="6.09" shape="995.46,413.81 996.65,413.53 997.77,412.80 998.84,411.62 999.86,409.97"/>
    </edge>
    <edge id=":3149252111_3" function="internal">
        <lane id=":3149252111_3_0" index="0" disallow="tram rail_urban rail rail_electric rail_fast ship container cable_car subway aircraft wheelchair scooter drone" speed="13.89" length="6.66" shape="995.46,413.81 1002.12,413.60"/>
    </edge>
    <edge id=":3149252112_0" function="internal">
        <lane id=":3149252112_0_0" index="0" disallow="tram rail_urban rail rail_electric rail_fast ship container cable_car subway aircraft wheelchair scooter drone" speed="13.89" length="7.84" shape="1038.04,415.76 1030.20,415.99"/>
    </edge>
    <edge id=":3149252112_1" function="internal">
        <lane id=":3149252112_1_0" index="0" allow="pedestrian delivery bicycle" speed="9.72" length="7.75" shape="1031.44,408.96 1033.14,410.55 1034.36,411.70 1035.76,412.39 1037.94,412.56"/>
    </edge>
    <edge id=":3149252112_2" function="internal">
        <lane id=":3149252112_2_0" index="0" allow="pedestrian delivery bicycle" speed="5.93" length="12.04" shape="1031.44,408.96 1034.39,411.93 1035.16,414.10 1033.77,415.45 1030.20,415.99"/>
    </edge>
    <edge id=":3149252112_3" function="internal">
        <lane id=":3149252112_3_0" index="0" disallow="tram rail_urban rail rail_electric rail_fast ship container cable_car subway aircraft wheelchair scooter drone" speed="13.89" length="7.83" shape="1030.11,412.79 1037.94,412.56"/>
    </edge>
    <edge id=":3149252128_0" function="internal">
        <lane id=":3149252128_0_0" index="0" allow="pedestrian delivery bicycle" speed="5.56" length="13.00" shape="969.69,367.33 966.52,368.11 964.05,369.89 961.68,372.04 958.77,373.96"/>
    </edge>
    <edge id=":3149252128_1" function="internal">
        <lane id=":3149252128_1_0" index="0" allow="pedestrian delivery bicycle" speed="5.56" length="14.47" shape="969.69,367.33 955.24,368.06"/>
    </edge>
    <edge id=":3149252128_2" function="internal">
        <lane id=":3149252128_2_0" index="0" allow="pedestrian delivery bicycle" speed="3.36" length="3.55" shape="956.64,371.33 955.24,368.06"/>
    </edge>
    <edge id=":3149252128_3" function="internal">
        <lane id=":3149252128_3_0" index="0" allow="pedestrian delivery bicycle" speed="3.92" length="4.94" shape="956.64,371.33 958.16,371.19 959.02,371.58 959.22,372.50 958.77,373.96"/>
    </edge>
    <edge id=":3149252733_0" function="internal">
        <lane id=":3149252733_0_0" index="0" allow="pedestrian delivery bicycle" speed="3.65" length="4.67" shape="948.39,387.28 947.60,388.49 946.80,388.89 946.00,388.49 945.19,387.29"/>
    </edge>
    <edge id=":338639636_0" function="internal">
        <lane id=":338639636_0_0" index="0" disallow="tram rail_urban rail rail_electric rail_fast ship container cable_car subway aircraft wheelchair scooter drone" speed="8.33" length="0.13" shape="13.38,320.17 13.24,320.18"/>
    </edge>
    <edge id=":338639636_1" function="internal">
        <lane id=":338639636_1_0" index="0" disallow="tram rail_urban rail rail_electric rail_fast ship container cable_car subway aircraft wheelchair scooter drone" speed="8.33" length="0.40" shape="12.87,317.01 13.28,316.98"/>
    </edge>
    <edge id=":339362247_0" function="internal">
        <lane id=":339362247_0_0" index="0" disallow="tram rail_urban rail rail_electric rail_fast ship container cable_car subway aircraft wheelchair scooter drone" speed="6.49" length="9.03" shape="242.12,318.63 241.71,316.19 240.62,314.47 238.84,313.47 236.38,313.20"/>
    </edge>