<?xml version="1.0" encoding="UTF-8"?>
<routes xmlns:xsi="http://www.w3.org/2001/XMLSchema-instance" xsi:noNamespaceSchemaLocation="http://sumo.dlr.de/xsd/routes_file.xsd">
    <include href="vehicle_types.rou.xml"/>
    <trip id="passenger_hatchback_0" type="passenger_hatchback" depart="0.00" from="763092075#1" to="1064294862#0"/>
    <trip id="passenger_sedan_1" type="passenger_sedan" depart="1.00" from="1068234514#1" to="1068234512#2"/>
    <trip id="passenger_sedan_2" type="passenger_sedan" depart="2.00" from="518974807#4" to="1064294858#2"/>
    <trip id="passenger_suv_3" type="passenger_suv" depart="3.00" from="-763092075#0" to="1064294858#2"/>
    <trip id="passenger_suv_4" type="passenger_suv" depart="4.00" from="668037880#0" to="-763092075#0"/>
    <trip id="passenger_suv_5" type="passenger_suv" depart="5.00" from="518974807#4" to="413949757#2"/>
    <trip id="truck_regular_6" type="truck_regular" depart="6.00" from="131473120#2" to="-131473132#0"/>
    <trip id="passenger_sedan_7" type="passenger_sedan" depart="7.00" from="413949757#3" to="182973465"/>
    <trip id="passenger_sedan_8" type="passenger_sedan" depart="8.00" from="182973465" to="1064294858#4"/>
    <trip id="passenger_sedan_9" type="passenger_sedan" depart="9.00" from="302219187" to="302219179"/>
    <trip id="passenger_hatchback_10" type="passenger_hatchback" depart="10.00" from="413949759" to="518974807#3"/>
    <trip id="passenger_suv_11" type="passenger_suv" depart="11.00" from="1064294858#1" to="518974814#0"/>
    <trip id="passenger_suv_12" type="passenger_suv" depart="12.00" from="668037880#2" to="306275221#0"/>
    <trip id="passenger_hatchback_13" type="passenger_hatchback" depart="13.00" from="1064294854" to="1060223615#0"/>
    <trip id="bus_coach_14" type="bus_coach" depart="14.00" from="1064294858#1" to="1068234512#3"/>
    <trip id="passenger_hatchback_15" type="passenger_hatchback" depart="15.00" from="131473120#2" to="413949759"/>
    <trip id="passenger_suv_16" type="passenger_suv" depart="16.00" from="1068234506#1" to="306275221#1"/>
    <trip id="passenger_sedan_17" type="passenger_sedan" depart="17.00" from="131473120#1" to="1064294858#0"/>
    <trip id="passenger_hatchback_18" type="passenger_hatchback" depart="18.00" from="518974807#3" to="1068234514#1"/>
    <trip id="passenger_sedan_19" type="passenger_sedan" depart="19.00" from="131473120#1" to="763092075#1"/>
    <trip id="passenger_sedan_20" type="passenger_sedan" depart="20.00" from="131473132#0" to="1064294853"/>
    <trip id="passenger_sedan_21" type="passenger_sedan" depart="21.00" from="131473131" to="413949757#0"/>
    <trip id="passenger_hatchback_22" type="passenger_hatchback" depart="22.00" from="518974814#2" to="131473131"/>
    <trip id="passenger_sedan_23" type="passenger_sedan" depart="23.00" from="413949754" to="413949759"/>
    <trip id="passenger_suv_24" type="passenger_suv" depart="24.00" from="1068234514#1" to="518974814#1"/>
    <trip id="bus_coach_25" type="bus_coach" depart="25.00" from="518974820#1" to="413949757#3"/>
    <trip id="emergency_police_26" type="emergency_police" depart="26.00" from="306275221#0" to="1068234512#2"/>
    <trip id="passenger_sedan_27" type="passenger_sedan" depart="27.00" from="518974807#0" to="467228962"/>
    <trip id="passenger_suv_28" type="passenger_suv" depart="28.00" from="1064294862#0" to="1068234506#0"/>
    <trip id="passenger_hatchback_29" type="passenger_hatchback" depart="29.00" from="413949757#3" to="518974820#3"/>
    <trip id="passenger_suv_30" type="passenger_suv" depart="30.00" from="518974820#3" to="413955654#0"/>
    <trip id="passenger_suv_31" type="passenger_suv" depart="31.00" from="-131473132#1" to="1064294862#0"/>
    <trip id="passenger_hatchback_32" type="passenger_hatchback" depart="32.00" from="131473120#1" to="182973465"/>
    <trip id="passenger_suv_33" type="passenger_suv" depart="33.00" from="1068234506#1" to="413949759"/>
    <trip id="truck_regular_34" type="truck_regular" depart="34.00" from="131473120#0" to="50823682"/>
    <trip id="truck_regular_35" type="truck_regular" depart="35.00" from="763092075#0" to="131473123#2"/>
    <trip id="truck_regular_36" type="truck_regular" depart="36.00" from="1068234506#0" to="306275221#1"/>
    <trip id="passenger_sedan_37" type="passenger_sedan" depart="37.00" from="518974820#3" to="131473132#0"/>
    <trip id="passenger_sedan_38" type="passenger_sedan" depart="38.00" from="306275221#0" to="131473123#3"/>
    <trip id="passenger_hatchback_39" type="passenger_hatchback" depart="39.00" from="518974814#2" to="1064294858#1"/>
    <trip id="truck_regular_40" type="truck_regular" depart="40.00" from="1064294854" to="518974807#3"/>
    <trip id="passenger_suv_41" type="passenger_suv" depart="41.00" from="413955654#1" to="518974814#0"/>
    <trip id="emergency_firebrigade_42" type="emergency_firebrigade" depart="42.00" from="668037880#0" to="413949757#3"/>
    <trip id="passenger_suv_43" type="passenger_suv" depart="43.00" from="1068234511#2" to="131473123#3"/>
    <trip id="bus_coach_44" type="bus_coach" depart="44.00" from="306275221#1" to="413949757#5"/>
    <trip id="passenger_hatchback_45" type="passenger_hatchback" depart="45.00" from="1064294862#1" to="1068234514#1"/>
    <trip id="passenger_suv_46" type="passenger_suv" depart="46.00" from="-440965024" to="518974820#2"/>
    <trip id="passenger_suv_47" type="passenger_suv" depart="47.00" from="1068234512#2" to="-131473132#0"/>
    <trip id="passenger_sedan_48" type="passenger_sedan" depart="48.00" from="1064294853" to="1068234512#3"/>
    <trip id="passenger_hatchback_49" type="passenger_hatchback" depart="49.00" from="131473132#1" to="1064294858#0"/>
    <trip id="passenger_suv_50" type="passenger_suv" depart="50.00" from="467228961" to="1068234512#1"/>
    <trip id="passenger_hatchback_51" type="passenger_hatchback" depart="51.00" from="518974820#0" to="413955654#1"/>
    <trip id="passenger_suv_52" type="passenger_suv" depart="52.00" from="413949757#1" to="1068234511#1"/>
    <trip id="passenger_hatchback_53" type="passenger_hatchback" depart="53.00" from="413949757#4" to="302219187"/>
    <trip id="passenger_suv_54" type="passenger_suv" depart="54.00" from="1060223615#1" to="1064294858#3"/>
    <trip id="passenger_sedan_55" type="passenger_sedan" depart="55.00" from="182973465" to="1064294858#4"/>
    <trip id="passenger_sedan_56" type="passenger_sedan" depart="56.00" from="518974807#3" to="413949757#6"/>
    <trip id="passenger_sedan_57" type="passenger_sedan" depart="57.00" from="131473120#2" to="413955654#0"/>
    <trip id="passenger_suv_58" type="passenger_suv" depart="58.00" from="413949757#5" to="518974814#0"/>
    <trip id="emergency_police_59" type="emergency_police" depart="59.00" from="518974807#4" to="-131473132#1"/>
    <trip id="passenger_sedan_60" type="passenger_sedan" depart="60.00" from="1068234509#0" to="413949757#1"/>
    <trip id="passenger_sedan_61" type="passenger_sedan" depart="61.00" from="413949757#0" to="1064294853"/>
    <trip id="bus_coach_62" type="bus_coach" depart="62.00" from="306275221#3" to="131473120#0"/>
    <trip id="passenger_suv_63" type="passenger_suv" depart="63.00" from="131473123#0" to="413949757#3"/>
    <trip id="passenger_hatchback_64" type="passenger_hatchback" depart="64.00" from="518974814#1" to="467228961"/>
    <trip id="passenger_suv_65" type="passenger_suv" depart="65.00" from="1068234512#1" to="1064294853"/>
    <trip id="passenger_suv_66" type="passenger_suv" depart="66.00" from="1064294853" to="131473131"/>
    <trip id="bus_city_67" type="bus_city" depart="67.00" from="440965024" to="50823682"/>
    <trip id="passenger_sedan_68" type="passenger_sedan" depart="68.00" from="1064294853" to="518974807#0"/>
    <trip id="passenger_sedan_69" type="passenger_sedan" depart="69.00" from="1064294854" to="518974820#3"/>
    <trip id="bus_city_70" type="bus_city" depart="70.00" from="413949757#0" to="1064294862#1"/>
    <trip id="passenger_sedan_71" type="passenger_sedan" depart="71.00" from="518974820#1" to="518974820#3"/>
    <trip id="passenger_hatchback_72" type="passenger_hatchback" depart="72.00" from="413949757#2" to="518974820#1"/>
    <trip id="passenger_hatchback_73" type="passenger_hatchback" depart="73.00" from="131473120#0" to="1068234512#0"/>
    <trip id="passenger_suv_74" type="passenger_suv" depart="74.00" from="1068234514#0" to="131473120#0"/>
    <trip id="passenger_sedan_75" type="passenger_sedan" depart="75.00" from="131473123#2" to="413949759"/>
    <trip id="passenger_suv_76" type="passenger_suv" depart="76.00" from="-131473132#1" to="413949759"/>
    <trip id="passenger_suv_77" type="passenger_suv" depart="77.00" from="1064294858#3" to="1064294858#0"/>
    <trip id="bus_city_78" type="bus_city" depart="78.00" from="131473120#0" to="1064294862#2"/>
    <trip id="passenger_hatchback_79" type="passenger_hatchback" depart="79.00" from="1068234514#1" to="306275221#1"/>
    <trip id="passenger_suv_80" type="passenger_suv" depart="80.00" from="518974807#4" to="131473123#2"/>
    <trip id="passenger_suv_81" type="passenger_suv" depart="81.00" from="518974807#2" to="-131473132#1"/>
    <trip id="bus_city_82" type="bus_city" depart="82.00" from="131473123#2" to="1064294858#4"/>
    <trip id="bus_city_83" type="bus_city" depart="83.00" from="131473120#0" to="1064294862#0"/>
    <trip id="passenger_suv_84" type="passenger_suv" depart="84.00" from="131473120#1" to="131473123#0"/>
    <trip id="passenger_hatchback_85" type="passenger_hatchback" depart="85.00" from="182973465" to="1068234512#0"/>
    <trip id="passenger_sedan_86" type="passenger_sedan" depart="86.00" from="50823682" to="467228961"/>
    <trip id="passenger_hatchback_87" type="passenger_hatchback" depart="87.00" from="1064294858#2" to="763092075#1"/>
    <trip id="passenger_sedan_88" type="passenger_sedan" depart="88.00" from="1060223615#0" to="-131473132#0"/>
    <trip id="passenger_hatchback_89" type="passenger_hatchback" depart="89.00" from="763092075#1" to="131473120#0"/>
    <trip id="passenger_sedan_90" type="passenger_sedan" depart="90.00" from="518974814#0" to="413949757#3"/>
    <trip id="passenger_hatchback_91" type="passenger_hatchback" depart="91.00" from="1064294858#0" to="1068234506#0"/>
    <trip id="passenger_sedan_92" type="passenger_sedan" depart="92.00" from="518974820#1" to="518974814#0"/>
    <trip id="passenger_sedan_93" type="passenger_sedan" depart="93.00" from="1060223615#0" to="131473123#3"/>
    <trip id="passenger_suv_94" type="passenger_suv" depart="94.00" from="302219187" to="1068234512#0"/>
    <trip id="truck_trailer_95" type="truck_trailer" depart="95.00" from="1064294858#4" to="302219187"/>
    <trip id="bus_city_96" type="bus_city" depart="96.00" from="668037880#2" to="1068234506#0"/>
    <trip id="bus_city_97" type="bus_city" depart="97.00" from="1068234506#1" to="1068234509#1"/>
    <trip id="truck_trailer_98" type="truck_trailer" depart="98.00" from="1068234509#1" to="131473132#1"/>
    <trip id="passenger_suv_99" type="passenger_suv" depart="99.00" from="1068234514#1" to="131473120#1"/>
    <trip id="bus_coach_100" type="bus_coach" depart="100.00" from="1064294858#4" to="306275221#2"/>
    <trip id="truck_trailer_101" type="truck_trailer" depart="101.00" from="1068234512#2" to="1068234511#2"/>
    <trip id="truck_regular_102" type="truck_regular" depart="102.00" from="302219179" to="131473123#3"/>
    <trip id="passenger_hatchback_103" type="passenger_hatchback" depart="103.00" from="1068234512#2" to="-763092075#0"/>
    <trip id="bus_coach_104" type="bus_coach" depart="104.00" from="131473132#1" to="131473120#2"/>
    <trip id="passenger_suv_105" type="passenger_suv" depart="105.00" from="302219179" to="518974807#0"/>
    <trip id="passenger_hatchback_106" type="passenger_hatchback" depart="106.00" from="131473132#1" to="-763092075#0"/>
    <trip id="emergency_ambulance_107" type="emergency_ambulance" depart="107.00" from="1068234509#1" to="518974820#1"/>
    <trip id="passenger_hatchback_108" type="passenger_hatchback" depart="108.00" from="-763092075#1" to="1064294858#4"/>
    <trip id="passenger_suv_109" type="passenger_suv" depart="109.00" from="131473131" to="413949757#4"/>
    <trip id="bus_city_110" type="bus_city" depart="110.00" from="1064294862#0" to="306275221#3"/>
    <trip id="truck_regular_111" type="truck_regular" depart="111.00" from="131473118" to="1060223615#0"/>
    <trip id="passenger_suv_112" type="passenger_suv" depart="112.00" from="518974807#1" to="518974807#3"/>
    <trip id="passenger_suv_113" type="passenger_suv" depart="113.00" from="1068234511#2" to="306275221#0"/>
    <trip id="passenger_sedan_114" type="passenger_sedan" depart="114.00" from="131473132#1" to="668037880#2"/>
    <trip id="passenger_hatchback_115" type="passenger_hatchback" depart="115.00" from="131473123#2" to="50823682"/>
    <trip id="passenger_suv_116" type="passenger_suv" depart="116.00" from="131473132#0" to="413949757#0"/>
    <trip id="passenger_hatchback_117" type="passenger_hatchback" depart="117.00" from="1064294862#2" to="1068234511#1"/>
    <trip id="passenger_hatchback_118" type="passenger_hatchback" depart="118.00" from="1068234509#1" to="668037880#1"/>
    <trip id="passenger_sedan_119" type="passenger_sedan" depart="119.00" from="518974814#0" to="-131473132#0"/>
    <trip id="passenger_hatchback_120" type="passenger_hatchback" depart="120.00" from="413949757#4" to="518974820#1"/>
    <trip id="passenger_sedan_121" type="passenger_sedan" depart="121.00" from="413955654#0" to="413949757#5"/>
    <trip id="truck_regular_122" type="truck_regular" depart="122.00" from="518974807#0" to="413955654#1"/>
    <trip id="passenger_suv_123" type="passenger_suv" depart="123.00" from="1064294858#1" to="131473123#0"/>
    <trip id="passenger_sedan_124" type="passenger_sedan" depart="124.00" from="668037880#2" to="131473132#1"/>
    <trip id="truck_regular_125" type="truck_regular" depart="125.00" from="131473123#3" to="1068234512#2"/>
    <trip id="passenger_hatchback_126" type="passenger_hatchback" depart="126.00" from="-763092075#0" to="1060223615#0"/>
    <trip id="passenger_suv_127" type="passenger_suv" depart="127.00" from="668037880#1" to="1064294858#0"/>
    <trip id="truck_trailer_128" type="truck_trailer" depart="128.00" from="518974820#0" to="1068234511#1"/>
    <trip id="passenger_suv_129" type="passenger_suv" depart="129.00" from="467228962" to="413949757#0"/>
    <trip id="truck_regular_130" type="truck_regular" depart="130.00" from="-131473132#0" to="1064294858#4"/>
    <trip id="passenger_suv_131" type="passenger_suv" depart="131.00" from="1068234509#1" to="518974807#1"/>
    <trip id="passenger_hatchback_132" type="passenger_hatchback" depart="132.00" from="1068234514#1" to="1064294862#1"/>
    <trip id="passenger_hatchback_133" type="passenger_hatchback" depart="133.00" from="518974807#2" to="518974814#1"/>
    <trip id="passenger_suv_134" type="passenger_suv" depart="134.00" from="668037880#1" to="50823682"/>
    <trip id="truck_trailer_135" type="truck_trailer" depart="135.00" from="413949757#6" to="1068234506#1"/>
    <trip id="truck_trailer_136" type="truck_trailer" depart="136.00" from="413949757#6" to="131473120#0"/>
    <trip id="passenger_hatchback_137" type="passenger_hatchback" depart="137.00" from="518974807#1" to="467228961"/>
    <trip id="truck_regular_138" type="truck_regular" depart="138.00" from="413949757#5" to="1064294858#0"/>
    <trip id="passenger_suv_139" type="passenger_suv" depart="139.00" from="131473120#1" to="131473132#1"/>
    <trip id="passenger_hatchback_140" type="passenger_hatchback" depart="140.00" from="1064294858#1" to="1068234505#0"/>
    <trip id="passenger_hatchback_141" type="passenger_hatchback" depart="141.00" from="1068234506#0" to="1068234512#1"/>
    <trip id="passenger_sedan_142" type="passenger_sedan" depart="142.00" from="131473132#1" to="518974807#4"/>
    <trip id="passenger_suv_143" type="passenger_suv" depart="143.00" from="1068234512#0" to="413949757#2"/>
    <trip id="passenger_sedan_144" type="passenger_sedan" depart="144.00" from="-440965024" to="518974820#0"/>
    <trip id="truck_trailer_145" type="truck_trailer" depart="145.00" from="302219187" to="131473123#2"/>
    <trip id="truck_regular_146" type="truck_regular" depart="146.00" from="518974807#3" to="518974807#4"/>
    <trip id="passenger_hatchback_147" type="passenger_hatchback" depart="147.00" from="467228961" to="1068234512#2"/>
    <trip id="passenger_suv_148" type="passenger_suv" depart="148.00" from="-763092075#0" to="306275221#3"/>
    <trip id="truck_regular_149" type="truck_regular" depart="149.00" from="413949757#0" to="1068234509#0"/>
    <trip id="passenger_hatchback_150" type="passenger_hatchback" depart="150.00" from="668037880#2" to="518974807#3"/>
    <trip id="passenger_sedan_151" type="passenger_sedan" depart="151.00" from="518974820#2" to="518974814#2"/>
    <trip id="bus_city_152" type="bus_city" depart="152.00" from="413949757#3" to="1068234505#0"/>
    <trip id="passenger_sedan_153" type="passenger_sedan" depart="153.00" from="1060223615#1" to="131473120#0"/>
    <trip id="passenger_hatchback_154" type="passenger_hatchback" depart="154.00" from="413949759" to="131473132#0"/>
    <trip id="passenger_sedan_155" type="passenger_sedan" depart="155.00" from="131473120#2" to="413949757#2"/>
    <trip id="truck_regular_156" type="truck_regular" depart="156.00" from="413955654#1" to="-440965024"/>
    <trip id="passenger_suv_157" type="passenger_suv" depart="157.00" from="302219179" to="1068234512#2"/>
    <trip id="bus_city_158" type="bus_city" depart="158.00" from="1060223615#0" to="-763092075#0"/>
    <trip id="passenger_sedan_159" type="passenger_sedan" depart="159.00" from="-440965024" to="668037880#2"/>
    <trip id="passenger_sedan_160" type="passenger_sedan" depart="160.00" from="413955654#1" to="1064294862#0"/>
    <trip id="truck_regular_161" type="truck_regular" depart="161.00" from="413955654#0" to="131473118"/>
    <trip id="truck_regular_162" type="truck_regular" depart="162.00" from="668037880#0" to="1064294862#0"/>
    <trip id="passenger_hatchback_163" type="passenger_hatchback" depart="163.00" from="131473123#3" to="1064294858#4"/>
    <trip id="passenger_suv_164" type="passenger_suv" depart="164.00" from="518974820#0" to="306275221#2"/>
    <trip id="passenger_suv_165" type="passenger_suv" depart="165.00" from="1068234511#2" to="1064294858#0"/>
    <trip id="passenger_hatchback_166" type="passenger_hatchback" depart="166.00" from="1068234514#1" to="1064294858#4"/>
    <trip id="truck_regular_167" type="truck_regular" depart="167.00" from="518974820#3" to="1064294862#1"/>
    <trip id="passenger_hatchback_168" type="passenger_hatchback" depart="168.00" from="302219179" to="518974807#3"/>
    <trip id="passenger_sedan_169" type="passenger_sedan" depart="169.00" from="1064294854" to="50823682"/>
    <trip id="passenger_hatchback_170" type="passenger_hatchback" depart="170.00" from="413949757#2" to="467228961"/>
    <trip id="truck_trailer_171" type="truck_trailer" depart="171.00" from="763092075#1" to="413949759"/>
    <trip id="emergency_ambulance_172" type="emergency_ambulance" depart="172.00" from="1068234509#1" to="518974807#1"/>
    <trip id="truck_trailer_173" type="truck_trailer" depart="173.00" from="668037880#1" to="518974807#3"/>
    <trip id="passenger_sedan_174" type="passenger_sedan" depart="174.00" from="413949757#4" to="518974820#2"/>
    <trip id="bus_city_175" type="bus_city" depart="175.00" from="1064294858#2" to="131473120#2"/>
    <trip id="passenger_hatchback_176" type="passenger_hatchback" depart="176.00" from="413955654#0" to="518974814#2"/>
    <trip id="passenger_hatchback_177" type="passenger_hatchback" depart="177.00" from="182973465" to="-763092075#0"/>
    <trip id="passenger_hatchback_178" type="passenger_hatchback" depart="178.00" from="1068234511#0" to="467228961"/>
    <trip id="bus_coach_179" type="bus_coach" depart="179.00" from="182973465" to="131473120#2"/>
    <trip id="passenger_sedan_180" type="passenger_sedan" depart="180.00" from="518974814#1" to="-131473132#1"/>
    <trip id="truck_trailer_181" type="truck_trailer" depart="181.00" from="1064294858#1" to="1068234514#0"/>
    <trip id="passenger_suv_182" type="passenger_suv" depart="182.00" from="518974814#1" to="1068234514#0"/>
    <trip id="truck_regular_183" type="truck_regular" depart="183.00" from="467228961" to="413949757#6"/>
    <trip id="passenger_sedan_184" type="passenger_sedan" depart="184.00" from="131473123#1" to="1068234512#2"/>
    <trip id="passenger_suv_185" type="passenger_suv" depart="185.00" from="131473123#3" to="518974820#1"/>
    <trip id="passenger_suv_186" type="passenger_suv" depart="186.00" from="518974807#2" to="302219179"/>
    <trip id="passenger_hatchback_187" type="passenger_hatchback" depart="187.00" from="518974814#0" to="131473132#1"/>
    <trip id="passenger_sedan_188" type="passenger_sedan" depart="188.00" from="131473120#1" to="131473123#3"/>
    <trip id="passenger_suv_189" type="passenger_suv" depart="189.00" from="1068234511#1" to="131473131"/>
    <trip id="passenger_hatchback_190" type="passenger_hatchback" depart="190.00" from="1068234511#0" to="1068234511#1"/>
    <trip id="emergency_firebrigade_191" type="emergency_firebrigade" depart="191.00" from="131473120#2" to="518974820#2"/>
    <trip id="emergency_police_192" type="emergency_police" depart="192.00" from="518974820#3" to="131473123#0"/>
    <trip id="passenger_hatchback_193" type="passenger_hatchback" depart="193.00" from="131473123#1" to="1068234512#3"/>
    <trip id="passenger_sedan_194" type="passenger_sedan" depart="194.00" from="-131473132#1" to="518974807#3"/>
    <trip id="passenger_sedan_195" type="passenger_sedan" depart="195.00" from="1060223615#1" to="518974814#0"/>
    <trip id="passenger_sedan_196" type="passenger_sedan" depart="196.00" from="763092075#1" to="467228961"/>
    <trip id="passenger_hatchback_197" type="passenger_hatchback" depart="197.00" from="518974820#0" to="131473123#0"/>
    <trip id="emergency_ambulance_198" type="emergency_ambulance" depart="198.00" from="182973465" to="1068234511#0"/>
    <trip id="truck_trailer_199" type="truck_trailer" depart="199.00" from="440965024" to="1064294862#0"/>
    <trip id="passenger_suv_200" type="passenger_suv" depart="200.00" from="467228961" to="1064294858#0"/>
    <trip id="passenger_suv_201" type="passenger_suv" depart="201.00" from="1060223615#1" to="1068234506#0"/>
    <trip id="emergency_police_202" type="emergency_police" depart="202.00" from="131473123#2" to="1064294858#1"/>
    <trip id="passenger_suv_203" type="passenger_suv" depart="203.00" from="518974814#1" to="413949757#2"/>
    <trip id="passenger_hatchback_204" type="passenger_hatchback" depart="204.00" from="1068234512#2" to="518974807#1"/>
    <trip id="emergency_ambulance_205" type="emergency_ambulance" depart="205.00" from="131473123#2" to="518974820#2"/>
    <trip id="passenger_suv_206" type="passenger_suv" depart="206.00" from="518974814#2" to="668037880#2"/>
    <trip id="passenger_hatchback_207" type="passenger_hatchback" depart="207.00" from="1064294858#3" to="1068234512#0"/>
    <trip id="passenger_suv_208" type="passenger_suv" depart="208.00" from="1064294858#1" to="1068234506#1"/>
    <trip id="passenger_hatchback_209" type="passenger_hatchback" depart="209.00" from="1064294858#0" to="1068234506#1"/>
    <trip id="passenger_sedan_210" type="passenger_sedan" depart="210.00" from="518974820#3" to="413955654#1"/>
    <trip id="passenger_sedan_211" type="passenger_sedan" depart="211.00" from="131473123#0" to="413949759"/>
    <trip id="passenger_sedan_212" type="passenger_sedan" depart="212.00" from="131473120#0" to="763092075#0"/>
    <trip id="passenger_suv_213" type="passenger_suv" depart="213.00" from="413949757#3" to="1064294862#0"/>
    <trip id="truck_regular_214" type="truck_regular" depart="214.00" from="1068234506#0" to="131473120#1"/>
    <trip id="truck_trailer_215" type="truck_trailer" depart="215.00" from="1064294853" to="1068234509#0"/>
    <trip id="passenger_hatchback_216" type="passenger_hatchback" depart="216.00" from="413949757#5" to="1064294862#1"/>
    <trip id="passenger_hatchback_217" type="passenger_hatchback" depart="217.00" from="413949757#0" to="131473120#1"/>
    <trip id="passenger_hatchback_218" type="passenger_hatchback" depart="218.00" from="413949757#5" to="1064294858#1"/>
    <trip id="passenger_sedan_219" type="passenger_sedan" depart="219.00" from="131473132#0" to="668037880#0"/>
    <trip id="passenger_sedan_220" type="passenger_sedan" depart="220.00" from="1068234512#3" to="518974820#0"/>
    <trip id="passenger_sedan_221" type="passenger_sedan" depart="221.00" from="131473120#1" to="518974820#0"/>
    <trip id="passenger_hatchback_222" type="passenger_hatchback" depart="222.00" from="413955654#1" to="518974807#1"/>
    <trip id="passenger_hatchback_223" type="passenger_hatchback" depart="223.00" from="1068234511#0" to="518974820#1"/>
    <trip id="passenger_hatchback_224" type="passenger_hatchback" depart="224.00" from="1064294858#2" to="413955654#1"/>
    <trip id="bus_coach_225" type="bus_coach" depart="225.00" from="131473132#0" to="1064294858#4"/>
    <trip id="passenger_hatchback_226" type="passenger_hatchback" depart="226.00" from="413949757#1" to="467228962"/>
    <trip id="passenger_hatchback_227" type="passenger_hatchback" depart="227.00" from="518974814#0" to="-763092075#1"/>
    <trip id="passenger_hatchback_228" type="passenger_hatchback" depart="228.00" from="131473118" to="131473132#0"/>
    <trip id="passenger_suv_229" type="passenger_suv" depart="229.00" from="518974807#0" to="-131473132#0"/>
    <trip id="passenger_suv_230" type="passenger_suv" depart="230.00" from="413955654#0" to="413949757#1"/>
    <trip id="truck_trailer_231" type="truck_trailer" depart="231.00" from="306275221#0" to="668037880#2"/>
    <trip id="passenger_sedan_232" type="passenger_sedan" depart="232.00" from="1060223615#1" to="1068234512#0"/>
    <trip id="bus_coach_233" type="bus_coach" depart="233.00" from="131473123#0" to="413949757#5"/>
    <trip id="emergency_firebrigade_234" type="emergency_firebrigade" depart="234.00" from="1064294862#1" to="-763092075#0"/>
    <trip id="passenger_sedan_235" type="passenger_sedan" depart="235.00" from="1068234514#0" to="1068234506#1"/>
    <trip id="passenger_sedan_236" type="passenger_sedan" depart="236.00" from="518974814#0" to="413949757#1"/>
    <trip id="passenger_sedan_237" type="passenger_sedan" depart="237.00" from="413955654#0" to="1064294862#1"/>
    <trip id="passenger_hatchback_238" type="passenger_hatchback" depart="238.00" from="467228962" to="131473123#1"/>
    <trip id="emergency_police_239" type="emergency_police" depart="239.00" from="413949757#2" to="440965024"/>
    <trip id="passenger_sedan_240" type="passenger_sedan" depart="240.00" from="413949759" to="518974814#0"/>
    <trip id="truck_regular_241" type="truck_regular" depart="241.00" from="518974820#3" to="518974807#0"/>
    <trip id="truck_trailer_242" type="truck_trailer" depart="242.00" from="1064294854" to="131473120#2"/>
    <trip id="passenger_sedan_243" type="passenger_sedan" depart="243.00" from="182973465" to="50823682"/>
    <trip id="truck_trailer_244" type="truck_trailer" depart="244.00" from="131473123#0" to="131473123#2"/>
    <trip id="passenger_hatchback_245" type="passenger_hatchback" depart="245.00" from="1068234506#0" to="413949757#6"/>
    <trip id="truck_trailer_246" type="truck_trailer" depart="246.00" from="131473132#1" to="518974814#0"/>
    <trip id="bus_city_247" type="bus_city" depart="247.00" from="413949759" to="131473132#0"/>
    <trip id="passenger_hatchback_248" type="passenger_hatchback" depart="248.00" from="518974820#0" to="306275221#3"/>
    <trip id="truck_trailer_249" type="truck_trailer" depart="249.00" from="1060223615#0" to="131473131"/>
    <trip id="passenger_sedan_250" type="passenger_sedan" depart="250.00" from="306275221#3" to="1068234506#0"/>
    <trip id="emergency_ambulance_251" type="emergency_ambulance" depart="251.00" from="1064294862#2" to="50823682"/>
    <trip id="passenger_hatchback_252" type="passenger_hatchback" depart="252.00" from="1064294858#3" to="413949757#5"/>
    <trip id="passenger_suv_253" type="passenger_suv" depart="253.00" from="-131473132#1" to="1068234505#1"/>
    <trip id="passenger_hatchback_254" type="passenger_hatchback" depart="254.00" from="1068234506#0" to="1064294858#0"/>
    <trip id="passenger_suv_255" type="passenger_suv" depart="255.00" from="182973465" to="668037880#2"/>
    <trip id="bus_coach_256" type="bus_coach" depart="256.00" from="1064294858#1" to="131473132#1"/>
    <trip id="truck_trailer_257" type="truck_trailer" depart="257.00" from="131473131" to="763092075#0"/>
    <trip id="passenger_sedan_258" type="passenger_sedan" depart="258.00" from="518974807#4" to="-763092075#1"/>
    <trip id="emergency_firebrigade_259" type="emergency_firebrigade" depart="259.00" from="763092075#0" to="131473123#0"/>
    <trip id="emergency_firebrigade_260" type="emergency_firebrigade" depart="260.00" from="1064294858#2" to="413949757#4"/>
    <trip id="passenger_hatchback_261" type="passenger_hatchback" depart="261.00" from="1064294858#3" to="413949757#5"/>
    <trip id="passenger_sedan_262" type="passenger_sedan" depart="262.00" from="-763092075#0" to="1060223615#0"/>
    <trip id="passenger_sedan_263" type="passenger_sedan" depart="263.00" from="131473123#1" to="302219187"/>
    <trip id="passenger_suv_264" type="passenger_suv" depart="264.00" from="1068234514#1" to="518974807#2"/>
    <trip id="passenger_suv_265" type="passenger_suv" depart="265.00" from="1068234511#0" to="1068234509#0"/>
    <trip id="passenger_hatchback_266" type="passenger_hatchback" depart="266.00" from="306275221#2" to="668037880#2"/>
    <trip id="passenger_suv_267" type="passenger_suv" depart="267.00" from="518974820#1" to="1068234505#1"/>