<?xml version="1.0" encoding="UTF-8"?>

<!-- generated on 2025-05-25 19:25:12 by Eclipse SUMO polyconvert Version 1.23.1
<polyconvertConfiguration xmlns:xsi="http://www.w3.org/2001/XMLSchema-instance" xsi:noNamespaceSchemaLocation="http://sumo.dlr.de/xsd/polyconvertConfiguration.xsd">

    <input>
        <net-file value="test.net.xml"/>
        <osm-files value="map.osm"/>
        <type-file value="typemap.xml"/>
    </input>

    <output>
        <output-file value="map.poly.xml"/>
    </output>

    <report>
        <xml-validation value="never"/>
    </report>

</polyconvertConfiguration>
-->

<additional xmlns:xsi="http://www.w3.org/2001/XMLSchema-instance" xsi:noNamespaceSchemaLocation="http://sumo.dlr.de/xsd/additional_file.xsd">
    <location netOffset="-353067.77,-2769414.15" convBoundary="-1955.26,-74.47,2210.36,1627.82" origBoundary="121.524085,25.032740,121.565545,25.047706" projParameter="+proj=utm +zone=51 +ellps=WGS84 +datum=WGS84 +units=m +no_defs"/>

    <poly id="1005879800" type="parking" color="184,184,179" fill="1" layer="-1.00" shape="134.059903,596.007138 158.304312,595.591442 158.590801,578.120719 133.414665,579.166714 134.059903,596.007138"/>
    <poly id="1008720557" type="building" color="255,230,230" fill="1" layer="-1.00" shape="429.293913,748.305944 410.874105,748.891276 411.254233,760.805502 429.674025,760.220170 429.293913,748.305944"/>
    <poly id="1008720558" type="building" color="255,230,230" fill="1" layer="-1.00" shape="447.713721,747.720638 429.293913,748.305944 429.674025,760.220170 448.093817,759.634863 447.713721,747.720638"/>
    <poly id="1008720559" type="building" color="255,230,230" fill="1" layer="-1.00" shape="385.809103,730.175167 418.070137,729.252972 418.489821,743.913743 405.758989,744.282965 406.127381,756.983748 387.555642,757.515359 387.298040,748.557241 393.108693,748.395189 393.000028,744.851877 386.231080,745.046368 385.809103,730.175167"/>
    <poly id="1008720564" type="building" color="255,230,230" fill="1" layer="-1.00" shape="262.457588,702.047240 274.845289,701.670496 274.374982,686.068762 261.987147,686.434431 262.457588,702.047240"/>
    <poly id="1008720565" type="building" color="255,230,230" fill="1" layer="-1.00" shape="311.722092,701.130460 311.523240,688.250630 293.392740,688.533943 293.591728,701.424848 311.722092,701.130460"/>
    <poly id="1008720566" type="building" color="255,230,230" fill="1" layer="-1.00" shape="342.994380,699.277206 355.723709,698.763950 355.150726,684.869101 342.431592,685.393324 342.994380,699.277206"/>
    <poly id="1008720567" type="building" color="255,230,230" fill="1" layer="-1.00" shape="333.260494,703.402480 333.788605,715.935402 355.020667,715.053943 354.492576,702.521021 333.260494,703.402480"/>
    <poly id="1008720568" type="building" color="255,230,230" fill="1" layer="-1.00" shape="312.375045,716.829920 333.788605,715.935402 333.260494,703.402480 311.846914,704.296997 312.375045,716.829920"/>
    <poly id="1008720569" type="building" color="255,230,230" fill="1" layer="-1.00" shape="290.911364,705.540862 291.317960,718.030784 309.293862,717.450061 308.897491,704.971106 290.911364,705.540862"/>
    <poly id="1021950797" type="amenity" color="237,199,199" fill="0" layer="-1.00" shape="499.852349,715.604456 498.832354,683.537889 497.802384,650.541005 497.337560,635.426587 470.403290,636.247137 454.314093,636.807402 363.878540,639.660855"/>
    <poly id="1038718500" type="building" color="255,230,230" fill="1" layer="-1.00" shape="817.414381,137.411311 817.829854,149.834659 832.699289,149.343288 832.293920,136.919833 817.414381,137.411311"/>
    <poly id="1038718501" type="building" color="255,230,230" fill="1" layer="-1.00" shape="820.040423,132.908325 831.407617,132.365812 830.602882,115.626809 819.245764,116.169214 820.040423,132.908325"/>
    <poly id="1038718502" type="building" color="255,230,230" fill="1" layer="-1.00" shape="834.016941,132.902798 848.944685,132.200370 848.172493,115.671472 845.590337,115.787704 845.801537,120.437558 833.455816,121.012680 834.016941,132.902798"/>
    <poly id="1038718503" type="building" color="255,230,230" fill="1" layer="-1.00" shape="849.929479,132.754736 865.555582,132.244232 864.983697,114.627699 861.997694,114.726094 862.133282,118.911546 849.493047,119.312579 849.929479,132.754736"/>
    <poly id="1038718504" type="building" color="255,230,230" fill="1" layer="-1.00" shape="833.712024,147.792826 865.839321,146.507680 865.372115,134.904545 833.244910,136.200766 833.712024,147.792826"/>
    <poly id="1038718505" type="building" color="255,230,230" fill="1" layer="-1.00" shape="880.784697,147.455489 880.108792,117.279363 870.988394,117.487665 871.154656,124.541592 868.662722,124.601472 869.028438,140.868882 871.520369,140.809002 871.664319,147.663792 880.784697,147.455489"/>
    <poly id="1038718506" type="building" color="255,230,230" fill="1" layer="-1.00" shape="705.073210,154.021052 744.656107,152.556106 744.106339,137.963207 707.953130,139.302819 708.238297,147.086523 704.818657,147.211749 705.073210,154.021052"/>
    <poly id="1038718507" type="building" color="255,230,230" fill="1" layer="-1.00" shape="674.103105,154.053621 703.424837,152.753831 702.840464,139.645548 683.020266,140.522368 682.898855,137.665939 702.971195,136.775343 702.401892,124.132111 672.817989,125.456860 674.103105,154.053621"/>
    <poly id="1038718508" type="building" color="255,230,230" fill="1" layer="-1.00" shape="706.867115,134.950318 742.585507,133.526746 742.049726,120.240721 706.331300,121.664292 706.867115,134.950318"/>
    <poly id="1038718509" type="building" color="255,230,230" fill="1" layer="-1.00" shape="755.804938,139.156088 756.336794,152.076632 782.835161,150.984456 782.303330,138.063912 755.804938,139.156088"/>
    <poly id="1038718510" type="building" color="255,230,230" fill="1" layer="-1.00" shape="754.613745,143.832030 751.725018,124.733892 742.526376,126.117222 745.405026,145.215468 754.613745,143.832030"/>
    <poly id="1038718511" type="building" color="255,230,230" fill="1" layer="-1.00" shape="754.170552,131.652660 768.643645,130.899628 768.089086,120.571221 753.615981,121.324253 754.170552,131.652660"/>
    <poly id="1038718512" type="building" color="255,230,230" fill="1" layer="-1.00" shape="787.182954,131.975021 786.767217,119.529524 771.706151,120.034070 772.111693,132.468600 787.182954,131.975021"/>
    <poly id="1038718513" type="building" color="255,230,230" fill="1" layer="-1.00" shape="787.245240,134.023501 800.773048,133.579683 800.295039,119.085706 786.767217,119.529524 787.182954,131.975021 787.245240,134.023501"/>
    <poly id="1038718514" type="building" color="255,230,230" fill="1" layer="-1.00" shape="783.129544,137.944306 783.399147,150.878733 802.649162,150.473370 802.379459,137.527869 783.129544,137.944306"/>
    <poly id="1038718520" type="amenity" color="237,199,199" fill="1" layer="-1.00" shape="1017.022901,134.668005 1017.290056,139.837854 1021.415183,139.627635 1021.148030,134.457785 1017.022901,134.668005"/>
    <poly id="1038718520#1" type="building" color="255,230,230" fill="1" layer="-1.00" shape="1017.022901,134.668005 1017.290056,139.837854 1021.415183,139.627635 1021.148030,134.457785 1017.022901,134.668005"/>
    <poly id="1038718522" type="building" color="255,230,230" fill="1" layer="-1.00" shape="929.164316,143.825711 944.325306,143.231658 943.881308,131.905188 928.720187,132.488166 929.164316,143.825711"/>
    <poly id="1038718523" type="building" color="255,230,230" fill="1" layer="-1.00" shape="945.251776,144.938605 961.186250,144.956584 961.205200,130.678829 945.270709,130.660849 945.251776,144.938605"/>
    <poly id="1038718524" type="building" color="255,230,230" fill="1" layer="-1.00" shape="983.034901,129.924933 962.746993,130.474050 963.127863,144.393085 983.415631,143.832892 983.034901,129.924933"/>
    <poly id="1038718525" type="building" color="255,230,230" fill="1" layer="-1.00" shape="973.278828,126.362889 983.036559,126.302914 982.946641,113.167199 973.189018,113.238248 973.278828,126.362889"/>
    <poly id="1038718526" type="building" color="255,230,230" fill="1" layer="-1.00" shape="942.718015,113.707927 943.186547,126.385462 972.167629,125.311425 971.699124,112.633890 942.718015,113.707927"/>
    <poly id="1038718527" type="building" color="255,230,230" fill="1" layer="-1.00" shape="928.399495,126.089402 941.645846,125.748421 941.332810,113.456899 928.086329,113.786805 928.399495,126.089402"/>
    <poly id="1038718528" type="building" color="255,230,230" fill="1" layer="-1.00" shape="913.390288,127.667654 926.876435,127.102565 926.418044,116.318996 912.932005,116.895159 913.390288,127.667654"/>
    <poly id="1038718529" type="building" color="255,230,230" fill="1" layer="-1.00" shape="914.414226,146.985127 927.023097,146.484799 926.293070,128.227524 913.684064,128.716776 914.414226,146.985127"/>
    <poly id="1047162063" type="building" color="255,230,230" fill="1" layer="-1.00" shape="965.620389,452.170154 968.641468,451.584039 971.288654,450.005038 973.230988,447.624991 974.239479,444.734332 974.186509,441.666719 973.086308,438.809675 971.073480,436.482980 968.373320,434.994367 965.330782,434.517372 955.806288,434.663490 956.085817,452.316381 965.620389,452.170154"/>
    <poly id="1047223997" type="building" color="255,230,230" fill="1" layer="-1.00" shape="1032.082732,771.569570 1049.404240,771.140804 1049.034381,756.357681 1031.712853,756.786446 1032.082732,771.569570"/>
    <poly id="1047223998" type="building" color="255,230,230" fill="1" layer="-1.00" shape="993.888711,772.520504 1012.965601,772.050777 1012.595583,757.256577 993.518791,757.737379 993.888711,772.520504"/>
    <poly id="1047228539" type="building" color="255,230,230" fill="1" layer="-1.00" shape="705.763989,205.342016 706.274992,219.137826 726.732179,218.387131 726.221197,204.591321 705.763989,205.342016"/>
    <poly id="1047230618" type="building" color="255,230,230" fill="1" layer="-1.00" shape="798.030229,663.728798 798.581069,675.596881 809.766549,675.089496 809.964594,679.451506 825.295333,678.744703 824.310106,657.399811 813.709705,657.889845 813.946078,663.004645 798.030229,663.728798"/>
    <poly id="1047230619" type="building" color="255,230,230" fill="1" layer="-1.00" shape="753.365221,663.520156 753.854577,678.124786 776.369519,677.363171 775.870215,662.769724 753.365221,663.520156"/>
    <poly id="1047232772" type="building" color="255,230,230" fill="1" layer="-1.00" shape="1040.885614,361.059481 1063.976792,360.347598 1063.622278,348.887254 1040.530963,349.588062 1040.885614,361.059481"/>
    <poly id="1047232773" type="building" color="255,230,230" fill="1" layer="-1.00" shape="994.692932,362.461322 1017.784228,361.760436 1017.439648,350.288908 994.348332,350.989794 994.692932,362.461322"/>
    <poly id="1047232774" type="building" color="255,230,230" fill="1" layer="-1.00" shape="971.601636,363.162248 994.692932,362.461322 994.348332,350.989794 971.247045,351.701902 971.601636,363.162248"/>
    <poly id="1047232775" type="building" color="255,230,230" fill="1" layer="-1.00" shape="904.933731,675.001803 920.621052,674.612512 920.374744,664.790320 904.687411,665.179612 904.933731,675.001803"/>
    <poly id="1047373582" type="building" color="255,230,230" fill="1" layer="-1.00" shape="1040.472763,692.659821 1056.674402,692.243036 1056.649780,683.326749 1053.842658,680.321790 1040.174852,680.833344 1040.472763,692.659821"/>
    <poly id="1050195571" type="building" color="255,230,230" fill="1" layer="-1.00" shape="258.477989,463.081338 258.127305,446.403903 324.966226,444.988327 325.316827,461.665760 258.477989,463.081338"/>
    <poly id="1050195572" type="building" color="255,230,230" fill="1" layer="-1.00" shape="278.304004,489.097538 278.002879,468.576027 315.344690,468.053198 315.635550,488.563739 278.304004,489.097538"/>
    <poly id="1050195573" type="building" color="255,230,230" fill="1" layer="-1.00" shape="328.319749,284.553664 327.935039,264.697649 340.728288,264.460629 341.102770,284.305677 328.319749,284.553664"/>
    <poly id="1050195574" type="building" color="255,230,230" fill="1" layer="-1.00" shape="314.987001,285.294931 314.484162,265.717095 326.116330,265.426069 326.629123,284.992720 314.987001,285.294931"/>
    <poly id="1061707650" type="natural" color="140,196,107" fill="0" layer="-4.00" shape="960.562925,498.257989 1181.419276,490.914451"/>
    <poly id="1061707651" type="natural" color="140,196,107" fill="0" layer="-4.00" shape="960.430415,495.301991 1181.286814,487.958453"/>
    <poly id="1061707655" type="natural" color="140,196,107" fill="0" layer="-4.00" shape="930.581361,499.121268 861.047715,501.404531"/>
    <poly id="1061707669" type="natural" color="140,196,107" fill="0" layer="-4.00" shape="33.546619,526.032309 148.541983,522.912687 177.116840,524.488559 230.962583,522.558635"/>
    <poly id="1061707673" type="natural" color="140,196,107" fill="0" layer="-4.00" shape="369.896818,505.592862 414.139930,504.043648"/>
    <poly id="1061707674" type="natural" color="140,196,107" fill="0" layer="-4.00" shape="369.658169,502.161712 414.980919,500.600913"/>
    <poly id="1061707675" type="natural" color="140,196,107" fill="0" layer="-4.00" shape="409.800794,516.274344 336.142506,518.803924"/>
    <poly id="1061707676" type="natural" color="140,196,107" fill="0" layer="-4.00" shape="269.006777,517.918743 410.176941,513.711639"/>
    <poly id="1076158083" type="building" color="255,230,230" fill="1" layer="-1.00" shape="279.457296,748.684999 308.971847,747.603743 308.472179,733.962864 278.957598,735.044121 279.457296,748.684999"/>
    <poly id="1079428510" type="building" color="255,230,230" fill="1" layer="-1.00" shape="160.300872,813.245427 159.113365,779.751766 139.060115,780.454715 139.583619,795.358063 143.759713,795.213477 143.947676,800.494949 129.028839,801.020874 128.852270,795.861120 135.792246,795.620356 135.267310,780.584105 124.948201,780.949814 125.067145,784.504094 109.220268,785.062171 110.162889,811.724264 140.736855,810.642319 140.852938,813.930793 160.300872,813.245427"/>
    <poly id="1079428511" type="building" color="255,230,230" fill="1" layer="-1.00" shape="161.522456,843.338237 160.952988,823.218348 143.319438,823.718059 143.429241,827.361049 111.642398,828.256656 111.950104,839.041866 119.838852,838.824118 119.951876,842.766139 126.145903,842.599849 126.063182,839.599005 141.749869,839.164507 141.832230,842.132125 157.992893,841.670397 158.042211,843.442108 161.522456,843.338237"/>
    <poly id="1079428512" type="building" color="255,230,230" fill="1" layer="-1.00" shape="180.737679,822.883839 190.178709,822.505454 190.387548,827.853161 196.762363,827.607424 196.662335,824.872602 206.264799,824.492493 206.789962,837.678965 191.821433,838.271816 191.986195,842.335123 189.504834,842.428251 189.727573,848.130256 181.759185,848.448508 180.737679,822.883839"/>
    <poly id="1079428513" type="building" color="255,230,230" fill="1" layer="-1.00" shape="197.763148,855.941441 197.342444,843.086141 207.913986,842.739924 207.988000,844.932276 214.595228,844.717279 214.475116,841.052247 226.378267,840.669582 226.845040,854.997560 197.763148,855.941441"/>
    <poly id="1079428514" type="building" color="255,230,230" fill="1" layer="-1.00" shape="235.297448,839.621168 242.913533,839.384268 243.437926,856.259222 235.831941,856.496014 235.297448,839.621168"/>
    <poly id="1079428515" type="building" color="255,230,230" fill="1" layer="-1.00" shape="235.053510,839.457641 235.337782,856.523476 228.467038,856.630530 228.182757,839.564695 235.053510,839.457641"/>
    <poly id="1079428516" type="landuse" color="194,194,130" fill="1" layer="-3.00" shape="226.957539,884.249394 211.705955,884.789886 210.922003,862.545616 226.173731,862.016199 226.957539,884.249394"/>
    <poly id="1079428517" type="building" color="255,230,230" fill="1" layer="-1.00" shape="268.526156,863.986933 280.491132,863.725490 280.529631,865.430858 286.108530,865.304476 286.070031,863.599108 294.241630,863.411652 294.609501,879.811997 266.271091,880.448684 265.957964,866.329509 268.526156,863.986933"/>
    <poly id="1103147777" type="building" color="255,230,230" fill="1" layer="-1.00" shape="470.868262,651.372632 470.403290,636.247137 497.337560,635.426587 497.802384,650.541005 470.868262,651.372632"/>
    <poly id="1103147778" type="building" color="255,230,230" fill="1" layer="-1.00" shape="365.351606,687.584104 386.102014,686.951550 415.368013,686.205494 424.639389,685.995244 498.832354,683.537889 499.852349,715.604456 366.331912,719.684336 365.351606,687.584104"/>
    <poly id="1103147779" type="building" color="255,230,230" fill="1" layer="-1.00" shape="386.102014,686.951550 385.050388,652.902624 364.300760,653.612704 365.351606,687.584104 386.102014,686.951550"/>
    <poly id="1103147780" type="building" color="255,230,230" fill="1" layer="-1.00" shape="364.300760,653.612704 363.878540,639.660855 454.314093,636.807402 454.719723,651.102797 423.862662,652.164901 414.581173,652.375258 364.300760,653.612704"/>
    <poly id="1103147781" type="building" color="255,230,230" fill="1" layer="-1.00" shape="415.368013,686.205494 414.581173,652.375258 423.862662,652.164901 424.639389,685.995244 415.368013,686.205494"/>
    <poly id="1103147782" type="tourism" color="207,245,201" fill="1" layer="-2.00" shape="390.885561,679.467884 408.247100,678.993576 407.696998,658.762730 390.335315,659.225962 390.885561,679.467884"/>
    <poly id="1103147783" type="leisure" color="207,245,201" fill="1" layer="-2.00" shape="426.530260,678.830620 445.444803,678.262160 444.819018,657.555839 425.904447,658.124298 426.530260,678.830620"/>
    <poly id="1103147784" type="leisure" color="207,245,201" fill="1" layer="-2.00" shape="452.171998,677.935231 451.691283,657.581802 478.798941,656.936575 479.279615,677.290004 452.171998,677.935231"/>
    <poly id="1112202779" type="building" color="255,230,230" fill="1" layer="-1.00" shape="934.795679,386.450741 922.834357,386.146646 913.865110,391.980157 913.397603,398.276586 913.172447,411.194149 935.974843,410.850656 934.795679,386.450741"/>
    <poly id="111507105" type="building" color="255,230,230" fill="1" layer="-1.00" shape="951.765446,404.047043 951.519657,389.550584 951.499149,388.576074 951.312729,377.745289 1006.622596,376.799692 1006.756956,384.651465 1021.578165,384.393405 1021.429582,376.154109 1083.236961,375.095093 1083.693563,401.784471 1024.105993,402.808697 1003.443032,403.162410 951.765446,404.047043"/>
    <poly id="111562542" type="building" color="255,230,230" fill="1" layer="-1.00" shape="883.123246,186.840528 882.780521,172.721706 853.462768,173.445094 853.805523,187.563917 883.123246,186.840528"/>
    <poly id="1144414080" type="building" color="255,230,230" fill="1" layer="-1.00" shape="671.516898,817.994184 694.316260,817.428749 694.684490,832.023605 671.885153,832.589041 671.516898,817.994184"/>
    <poly id="1144414081" type="building" color="255,230,230" fill="1" layer="-1.00" shape="645.134137,818.454057 670.981786,817.966687 671.277036,833.282297 645.429534,833.780742 645.134137,818.454057"/>
    <poly id="1144414082" type="building" color="255,230,230" fill="1" layer="-1.00" shape="708.864368,844.476767 722.925279,843.938508 723.272996,852.851349 709.202005,853.389717 708.864368,844.476767"/>
    <poly id="1153979565" type="building" color="255,230,230" fill="1" layer="-1.00" shape="365.772650,745.609335 384.063675,745.246855 383.801972,732.146173 365.520901,732.497468 365.772650,745.609335"/>
    <poly id="1153979894" type="building" color="255,230,230" fill="1" layer="-1.00" shape="368.008939,797.888536 386.895189,797.519666 386.473823,776.124403 367.587543,776.493272 368.008939,797.888536"/>
    <poly id="1156916043" type="building" color="255,230,230" fill="1" layer="-1.00" shape="251.651052,184.492240 266.096201,183.960501 265.568003,169.544582 251.122719,170.065246 251.651052,184.492240"/>
    <poly id="1185936638" type="industrial" color="209,209,204" fill="1" layer="-3.00" shape="93.800168,718.336971 93.748357,713.519247 92.933629,692.183581 94.510913,690.593754 128.894622,689.991425 137.974204,686.958535 155.862915,686.710844 161.077997,692.159807 162.877877,721.603959 158.053303,726.197187 142.255768,727.596505 99.878805,719.634011 95.398921,719.682188 93.800168,718.336971"/>
    <poly id="1232418115" type="building" color="255,230,230" fill="1" layer="-1.00" shape="103.888967,355.882806 108.055463,355.771549 107.974767,352.958986 118.345484,352.670264 118.181477,346.801481 103.644256,347.201460 103.888967,355.882806"/>
    <poly id="1232418116" type="building" color="255,230,230" fill="1" layer="-1.00" shape="103.647242,337.155041 117.851262,336.736493 117.410378,322.009487 103.206344,322.428035 103.647242,337.155041"/>
    <poly id="1232418117" type="building" color="255,230,230" fill="1" layer="-1.00" shape="174.851003,285.482072 182.821624,285.341036 182.530117,269.482625 174.569577,269.623553 174.851003,285.482072"/>
    <poly id="1232418118" type="building" color="255,230,230" fill="1" layer="-1.00" shape="212.479040,284.313478 212.242421,268.864310 203.363438,268.992935 203.600187,284.453178 212.479040,284.313478"/>
    <poly id="1232418119" type="building" color="255,230,230" fill="1" layer="-1.00" shape="222.851235,284.157741 222.583359,266.737293 212.211151,266.893030 212.242421,268.864310 212.479040,284.313478 222.851235,284.157741"/>
    <poly id="1232418120" type="building" color="255,230,230" fill="1" layer="-1.00" shape="184.345009,289.998947 184.503957,302.912434 197.752065,302.747926 197.593010,289.823364 184.345009,289.998947"/>
    <poly id="1232418121" type="building" color="255,230,230" fill="1" layer="-1.00" shape="171.834081,303.358730 184.002544,303.205811 183.836812,289.661037 176.319774,289.752892 176.307991,288.656445 171.646344,288.706542 171.834081,303.358730"/>
    <poly id="1241584309" type="building" color="255,230,230" fill="1" layer="-1.00" shape="669.288835,409.329265 651.713887,409.694741 652.020535,424.190563 669.595464,423.825086 669.288835,409.329265"/>
    <poly id="1241584310" type="building" color="255,230,230" fill="1" layer="-1.00" shape="651.713887,409.694741 634.148910,410.049057 634.445605,424.556063 652.020535,424.190563 651.713887,409.694741"/>
    <poly id="1241584311" type="building" color="255,230,230" fill="1" layer="-1.00" shape="634.148910,410.049057 616.573961,410.414579 616.880647,424.910401 634.445605,424.556063 634.148910,410.049057"/>
    <poly id="1241584312" type="building" color="255,230,230" fill="1" layer="-1.00" shape="634.023645,391.763137 616.447249,391.995755 616.642943,406.492767 634.219321,406.260148 634.023645,391.763137"/>
    <poly id="1241584313" type="building" color="255,230,230" fill="1" layer="-1.00" shape="651.600041,391.530541 634.023645,391.763137 634.219321,406.260148 651.795698,406.027552 651.600041,391.530541"/>
    <poly id="1241584314" type="building" color="255,230,230" fill="1" layer="-1.00" shape="669.166227,391.287001 651.600041,391.530541 651.795698,406.027552 669.361984,405.795086 669.166227,391.287001"/>
    <poly id="1241584315" type="building" color="255,230,230" fill="1" layer="-1.00" shape="617.597322,237.499825 627.251713,237.219170 626.878920,224.086465 617.214430,224.367229 617.597322,237.499825"/>
    <poly id="1241584316" type="building" color="255,230,230" fill="1" layer="-1.00" shape="647.044704,236.641616 666.373666,236.080138 665.990940,222.958617 646.661959,223.520095 647.044704,236.641616"/>
    <poly id="1241584317" type="building" color="255,230,230" fill="1" layer="-1.00" shape="626.878920,224.086465 627.251713,237.219170 647.044704,236.641616 646.661959,223.520095 626.878920,224.086465"/>
    <poly id="1241584318" type="building" color="255,230,230" fill="1" layer="-1.00" shape="645.986055,220.713911 665.315039,220.152432 664.932313,207.030912 645.603309,207.592390 645.986055,220.713911"/>
    <poly id="1241584319" type="building" color="255,230,230" fill="1" layer="-1.00" shape="625.820248,208.158761 626.203131,221.291357 645.986055,220.713911 645.603309,207.592390 625.820248,208.158761"/>
    <poly id="1241584320" type="building" color="255,230,230" fill="1" layer="-1.00" shape="616.538638,221.572121 626.203131,221.291357 625.820248,208.158761 616.155746,208.439524 616.538638,221.572121"/>
    <poly id="1241584321" type="building" color="255,230,230" fill="1" layer="-1.00" shape="748.767124,175.540077 758.915146,175.176698 758.497233,163.473346 748.349202,163.836724 748.767124,175.540077"/>
    <poly id="1241584322" type="building" color="255,230,230" fill="1" layer="-1.00" shape="729.822812,176.219157 748.767124,175.540077 748.349202,163.836724 729.394784,164.515912 729.822812,176.219157"/>
    <poly id="1241584323" type="building" color="255,230,230" fill="1" layer="-1.00" shape="710.868410,176.898371 729.822812,176.219157 729.394784,164.515912 710.440365,165.195126 710.868410,176.898371"/>
    <poly id="1241584324" type="building" color="255,230,230" fill="1" layer="-1.00" shape="691.914008,177.577612 710.868410,176.898371 710.440365,165.195126 691.496037,165.874259 691.914008,177.577612"/>
    <poly id="1241584325" type="building" color="255,230,230" fill="1" layer="-1.00" shape="672.969697,178.256771 691.914008,177.577612 691.496037,165.874259 672.541620,166.553526 672.969697,178.256771"/>
    <poly id="1241584326" type="building" color="255,230,230" fill="1" layer="-1.00" shape="647.416425,161.118244 647.814925,178.537266 664.481815,178.159375 664.083218,160.729278 647.416425,161.118244"/>
    <poly id="1241584327" type="building" color="255,230,230" fill="1" layer="-1.00" shape="646.967133,141.783536 652.929751,141.653211 652.984458,143.934378 657.625373,143.829289 657.664888,145.634331 659.117763,145.607693 659.155855,147.279832 660.467467,147.254708 660.560976,151.274466 663.860007,151.194827 664.083218,160.729278 647.416425,161.118244 646.967133,141.783536"/>
    <poly id="1280784927" type="landuse" color="194,194,130" fill="1" layer="-3.00" shape="567.496976,633.212256 663.685191,629.489948 574.195193,721.497562 568.919646,721.687030 567.496976,633.212256"/>
    <poly id="1280796683" type="building" color="255,230,230" fill="1" layer="-1.00" shape="620.314613,593.767750 651.828588,592.787673 652.194851,604.369745 620.680903,605.349823 620.314613,593.767750"/>
    <poly id="1280796684" type="building" color="255,230,230" fill="1" layer="-1.00" shape="667.533109,610.951011 684.571026,593.444906 681.746091,593.497315 681.789520,595.667840 677.088102,595.762502 677.166541,599.317211 673.585102,599.399878 673.631261,601.825132 668.617058,601.923148 668.676986,604.691625 661.059947,604.850754 660.973318,600.531855 657.048822,600.618202 656.913651,594.594046 660.656649,594.520720 660.577731,590.921711 664.522409,590.835149 664.472807,588.088714 688.756481,587.573852 693.079674,591.736611 698.130130,586.543038 700.709681,589.018696 701.654075,591.456483 675.363761,618.487749 673.796732,620.099547 670.736876,621.771641 660.103209,621.985237 659.875714,611.110573 667.533109,610.951011"/>
    <poly id="1281079724" type="building" color="255,230,230" fill="1" layer="-1.00" shape="60.879800,716.132372 60.737645,711.359926 76.898228,710.875959 77.040377,715.648405 60.879800,716.132372"/>
    <poly id="1369738911" type="landuse" color="194,194,130" fill="1" layer="-3.00" shape="119.912178,861.596629 119.527492,845.528753 168.092332,844.342034 168.487170,860.420875 119.912178,861.596629"/>
    <poly id="1369738912" type="building" color="255,230,230" fill="1" layer="-1.00" shape="122.828638,859.737645 165.168544,858.662155 164.840759,846.005233 122.500814,847.080722 122.828638,859.737645"/>
    <poly id="139031419" type="amenity" color="237,199,199" fill="0" layer="-1.00" shape="861.519295,337.002587 818.314888,399.836371 810.226065,409.670214 810.369832,415.561357 805.961083,415.663916 802.240152,420.632761 797.427677,428.271642 795.006721,432.130008 790.184283,439.780075 789.554317,439.376988 787.416968,442.390509 787.937099,444.788536 786.090628,444.808297 786.164977,449.869448 782.250411,449.944573 768.373881,469.631991 738.271754,470.552360 716.582900,471.216561 712.588924,471.414398 705.496253,471.545730 682.255557,472.414903 680.185988,405.435475 677.401812,323.554771"/>
    <poly id="139031421" type="building" color="255,230,230" fill="1" layer="-1.00" shape="705.858844,258.496981 681.588115,259.332857 681.527473,257.439430 679.257782,257.519119 679.318306,259.401471 679.701868,270.717518 679.005767,270.736049 679.326078,279.915014 679.981699,279.885840 681.228517,316.214393 691.971752,315.844584 690.695769,278.674532 690.201471,278.690901 690.115194,276.288231 694.412405,276.131449 694.211371,270.551061 706.256032,270.145176 705.858844,258.496981"/>
    <poly id="139190393" type="amenity" color="237,199,199" fill="0" layer="-1.00" shape="363.878540,639.660855 364.300760,653.612704 365.351606,687.584104 366.331912,719.684336 499.852349,715.604456"/>
    <poly id="139190767" type="amenity" color="237,199,199" fill="1" layer="-1.00" shape="83.595720,491.976478 239.260657,487.157616 236.290772,400.449480 234.655399,397.576082 84.226897,402.405083 80.248654,405.006536 83.595720,491.976478"/>
    <poly id="139350160" type="amenity" color="237,199,199" fill="1" layer="-1.00" shape="612.769867,384.071170 672.630146,383.053310 669.933677,343.284420 613.404732,344.432734 612.769867,384.071170"/>