<?xml version="1.0" encoding="UTF-8"?>

<!-- generated on 2025-03-25 23:55:10 by Eclipse SUMO netedit Version 1.22.0
<neteditConfiguration xmlns:xsi="http://www.w3.org/2001/XMLSchema-instance" xsi:noNamespaceSchemaLocation="http://sumo.dlr.de/xsd/neteditConfiguration.xsd">

    <input>
        <sumo-net-file value="C:\Users\kfhan\OneDrive\Documents\CGU\AI and IoT\osm.net.xml"/>
    </input>

    <output>
        <output-file value="C:\Users\kfhan\OneDrive\Documents\CGU\AI and IoT\osm.net.xml"/>
        <output.street-names value="true"/>
    </output>

    <processing>
        <geometry.min-radius.fix.railways value="false"/>
        <geometry.max-grade.fix value="false"/>
        <offset.disable-normalization value="true"/>
        <lefthand value="1"/>
    </processing>

    <junctions>
        <no-turnarounds value="true"/>
        <junctions.corner-detail value="5"/>
        <junctions.limit-turn-speed value="5.50"/>
        <rectangular-lane-cut value="0"/>
    </junctions>

    <pedestrian>
        <walkingareas value="0"/>
    </pedestrian>

</neteditConfiguration>
-->

<net version="1.20" junctionCornerDetail="5" lefthand="true" limitTurnSpeed="5.50" xmlns:xsi="http://www.w3.org/2001/XMLSchema-instance" xsi:noNamespaceSchemaLocation="http://sumo.dlr.de/xsd/net_file.xsd">

    <location netOffset="-11870870.20,702820.41" convBoundary="3.40,4.03,592.63,414.50" origBoundary="106.637841,-6.300805,106.643682,-6.297091" projParameter="+proj=merc +a=6378137 +b=6378137 +lat_ts=0.0 +lon_0=0.0 +x_0=0.0 +y_0=0 +k=1.0 +units=m +nadgrids=@null +wktext +no_defs"/>

    <type id="highway.footway" priority="1" numLanes="1" speed="2.78" allow="pedestrian" oneway="1" width="2.00"/>
    <type id="highway.path" priority="1" numLanes="1" speed="5.56" allow="pedestrian bicycle" oneway="0" width="2.00"/>
    <type id="highway.primary" priority="12" numLanes="2" speed="27.78" disallow="tram rail_urban rail rail_electric rail_fast ship container cable_car subway aircraft wheelchair scooter drone" oneway="0"/>
    <type id="highway.primary_link" priority="7" numLanes="1" speed="22.22" disallow="tram rail_urban rail rail_electric rail_fast ship container cable_car subway aircraft wheelchair scooter drone" oneway="0"/>
    <type id="highway.residential" priority="3" numLanes="1" speed="13.89" disallow="tram rail_urban rail rail_electric rail_fast ship container cable_car subway aircraft wheelchair scooter drone" oneway="0"/>
    <type id="highway.secondary" priority="11" numLanes="1" speed="27.78" disallow="tram rail_urban rail rail_electric rail_fast ship container cable_car subway aircraft wheelchair scooter drone" oneway="0"/>
    <type id="highway.service" priority="1" numLanes="1" speed="5.56" allow="pedestrian delivery bicycle" oneway="0"/>
    <type id="highway.tertiary" priority="10" numLanes="1" speed="22.22" disallow="tram rail_urban rail rail_electric rail_fast ship container cable_car subway aircraft wheelchair scooter drone" oneway="0"/>

    <edge id=":12107495924_0" function="internal">
        <lane id=":12107495924_0_0" index="0" allow="pedestrian delivery bicycle" speed="5.04" length="5.00" shape="137.00,240.45 135.71,240.92 134.58,240.86 133.61,240.28 132.80,239.17"/>
    </edge>
    <edge id=":12107495924_1" function="internal">
        <lane id=":12107495924_1_0" index="0" allow="pedestrian delivery bicycle" speed="5.56" length="7.76" shape="137.00,240.45 134.66,241.92 133.19,243.36 132.61,244.77 132.90,246.15"/>
    </edge>
    <edge id=":12107495924_2" function="internal">
        <lane id=":12107495924_2_0" index="0" allow="pedestrian delivery bicycle" speed="5.56" length="6.20" shape="135.72,244.64 132.80,239.17"/>
    </edge>
    <edge id=":12107495924_3" function="internal">
        <lane id=":12107495924_3_0" index="0" allow="pedestrian delivery bicycle" speed="3.65" length="4.67" shape="135.72,244.64 134.45,243.96 133.56,243.99 133.04,244.71 132.90,246.15"/>
    </edge>
    <edge id=":12107495924_4" function="internal">
        <lane id=":12107495924_4_0" index="0" allow="pedestrian delivery bicycle" speed="5.04" length="5.00" shape="128.70,244.87 129.99,244.40 131.12,244.46 132.09,245.04 132.90,246.15"/>
    </edge>
    <edge id=":12107495924_5" function="internal">
        <lane id=":12107495924_5_0" index="0" allow="pedestrian delivery bicycle" speed="5.56" length="7.76" shape="128.70,244.87 131.04,243.40 132.51,241.96 133.09,240.55 132.80,239.17"/>
    </edge>
    <edge id=":12107495924_6" function="internal">
        <lane id=":12107495924_6_0" index="0" allow="pedestrian delivery bicycle" speed="5.56" length="6.20" shape="129.98,240.68 132.90,246.15"/>
    </edge>
    <edge id=":12107495924_7" function="internal">
        <lane id=":12107495924_7_0" index="0" allow="pedestrian delivery bicycle" speed="3.65" length="4.67" shape="129.98,240.68 131.25,241.36 132.14,241.33 132.66,240.61 132.80,239.17"/>
    </edge>
    <edge id=":12107495926_0" function="internal">
        <lane id=":12107495926_0_0" index="0" allow="pedestrian delivery bicycle" speed="5.06" length="5.03" shape="152.42,275.95 151.94,274.65 152.00,273.51 152.58,272.54 153.68,271.72"/>
    </edge>
    <edge id=":12107495926_1" function="internal">
        <lane id=":12107495926_1_0" index="0" allow="pedestrian delivery bicycle" speed="5.56" length="6.23" shape="152.42,275.95 149.49,270.45"/>
    </edge>
    <edge id=":12107495926_2" function="internal">
        <lane id=":12107495926_2_0" index="0" allow="pedestrian delivery bicycle" speed="3.65" length="4.67" shape="152.42,275.95 151.15,275.26 150.25,275.29 149.73,276.01 149.59,277.45"/>
    </edge>
    <edge id=":12107495926_3" function="internal">
        <lane id=":12107495926_3_0" index="0" allow="pedestrian delivery bicycle" speed="5.04" length="5.00" shape="145.39,276.18 146.68,275.71 147.81,275.76 148.78,276.34 149.59,277.45"/>
    </edge>
    <edge id=":12107495926_4" function="internal">
        <lane id=":12107495926_4_0" index="0" allow="pedestrian delivery bicycle" speed="5.56" length="9.41" shape="145.39,276.18 153.68,271.72"/>
    </edge>
    <edge id=":12107495926_5" function="internal">
        <lane id=":12107495926_5_0" index="0" allow="pedestrian delivery bicycle" speed="5.56" length="7.77" shape="145.39,276.18 147.73,274.70 149.19,273.25 149.78,271.84 149.49,270.45"/>
    </edge>
    <edge id=":12107495926_6" function="internal">
        <lane id=":12107495926_6_0" index="0" allow="pedestrian delivery bicycle" speed="5.56" length="6.22" shape="146.66,271.96 149.59,277.45"/>
    </edge>
    <edge id=":12107495926_7" function="internal">
        <lane id=":12107495926_7_0" index="0" allow="pedestrian delivery bicycle" speed="5.56" length="7.76" shape="146.66,271.96 147.65,272.98 149.15,273.27 151.16,272.86 153.68,271.72"/>
    </edge>
    <edge id=":12107495926_8" function="internal">
        <lane id=":12107495926_8_0" index="0" allow="pedestrian delivery bicycle" speed="3.65" length="4.67" shape="146.66,271.96 147.93,272.64 148.83,272.62 149.35,271.89 149.49,270.45"/>
    </edge>
    <edge id=":12107495930_0" function="internal">
        <lane id=":12107495930_0_0" index="0" allow="pedestrian delivery bicycle" speed="5.56" length="6.20" shape="301.91,212.59 307.38,209.67"/>
    </edge>
    <edge id=":12107495930_1" function="internal">
        <lane id=":12107495930_1_0" index="0" allow="pedestrian delivery bicycle" speed="5.13" length="5.06" shape="303.09,208.37 303.96,209.48 304.97,210.06 306.11,210.12 307.38,209.67"/>
    </edge>
    <edge id=":12107495931_0" function="internal">
        <lane id=":12107495931_0_0" index="0" allow="pedestrian delivery bicycle" speed="5.56" length="6.20" shape="232.03,250.01 237.49,247.09"/>
    </edge>
    <edge id=":12107495931_1" function="internal">
        <lane id=":12107495931_1_0" index="0" allow="pedestrian delivery bicycle" speed="5.04" length="5.00" shape="232.03,250.01 233.13,249.20 233.71,248.23 233.77,247.10 233.30,245.82"/>
    </edge>
    <edge id=":12107495933_0" function="internal">
        <lane id=":12107495933_0_0" index="0" allow="pedestrian delivery bicycle" speed="5.18" length="5.09" shape="93.88,307.29 93.50,306.00 93.64,304.86 94.28,303.88 95.44,303.04"/>
    </edge>
    <edge id=":12107495933_1" function="internal">
        <lane id=":12107495933_1_0" index="0" allow="pedestrian delivery bicycle" speed="4.98" length="5.07" shape="91.28,301.66 92.04,302.83 92.99,303.46 94.12,303.53 95.44,303.04"/>
    </edge>
    <edge id=":12107495934_0" function="internal">
        <lane id=":12107495934_0_0" index="0" allow="pedestrian delivery bicycle" speed="5.04" length="5.00" shape="119.20,213.66 118.73,212.37 118.79,211.24 119.37,210.27 120.48,209.46"/>
    </edge>
    <edge id=":12107495934_1" function="internal">
        <lane id=":12107495934_1_0" index="0" allow="pedestrian delivery bicycle" speed="5.56" length="7.76" shape="119.20,213.66 118.22,212.64 116.72,212.34 114.71,212.75 112.18,213.88"/>
    </edge>
    <edge id=":12107495934_2" function="internal">
        <lane id=":12107495934_2_0" index="0" allow="pedestrian delivery bicycle" speed="3.65" length="4.67" shape="119.20,213.66 117.93,212.97 117.04,213.00 116.52,213.73 116.38,215.16"/>
    </edge>
    <edge id=":12107495940_0" function="internal">
        <lane id=":12107495940_0_0" index="0" allow="pedestrian delivery bicycle" speed="5.03" length="5.01" shape="160.83,291.67 160.35,290.38 160.39,289.25 160.97,288.28 162.08,287.46"/>
    </edge>
    <edge id=":12107495940_1" function="internal">
        <lane id=":12107495940_1_0" index="0" allow="pedestrian delivery bicycle" speed="5.56" length="6.22" shape="160.83,291.67 157.87,286.20"/>
    </edge>
    <edge id=":12107495940_2" function="internal">
        <lane id=":12107495940_2_0" index="0" allow="pedestrian delivery bicycle" speed="5.56" length="7.78" shape="160.83,291.67 159.83,290.66 158.32,290.36 156.30,290.78 153.78,291.91"/>
    </edge>
    <edge id=":12107495940_3" function="internal">
        <lane id=":12107495940_3_0" index="0" allow="pedestrian delivery bicycle" speed="3.65" length="4.67" shape="160.83,291.67 159.55,291.00 158.66,291.03 158.15,291.77 158.02,293.21"/>
    </edge>
    <edge id=":12107495940_4" function="internal">
        <lane id=":12107495940_4_0" index="0" allow="pedestrian delivery bicycle" speed="5.05" length="5.01" shape="155.05,287.70 155.52,288.99 155.46,290.12 154.88,291.10 153.78,291.91"/>
    </edge>
    <edge id=":12107495940_5" function="internal">
        <lane id=":12107495940_5_0" index="0" allow="pedestrian delivery bicycle" speed="5.56" length="6.26" shape="155.05,287.70 158.02,293.21"/>
    </edge>
    <edge id=":12107495940_6" function="internal">
        <lane id=":12107495940_6_0" index="0" allow="pedestrian delivery bicycle" speed="5.56" length="7.77" shape="155.05,287.70 156.04,288.71 157.54,289.01 159.55,288.60 162.08,287.46"/>
    </edge>
    <edge id=":12107495940_7" function="internal">
        <lane id=":12107495940_7_0" index="0" allow="pedestrian delivery bicycle" speed="3.65" length="4.67" shape="155.05,287.70 156.32,288.38 157.21,288.36 157.73,287.63 157.87,286.20"/>
    </edge>
    <edge id=":12107495944_0" function="internal">
        <lane id=":12107495944_0_0" index="0" allow="pedestrian delivery bicycle" speed="5.56" length="6.20" shape="281.66,206.39 278.67,200.96"/>
    </edge>
    <edge id=":12107495944_1" function="internal">
        <lane id=":12107495944_1_0" index="0" allow="pedestrian delivery bicycle" speed="5.03" length="5.01" shape="277.43,205.17 278.53,204.35 279.11,203.38 279.15,202.25 278.67,200.96"/>
    </edge>
    <edge id=":12107495946_0" function="internal">
        <lane id=":12107495946_0_0" index="0" allow="pedestrian delivery bicycle" speed="5.56" length="6.20" shape="274.61,187.10 269.14,190.02"/>
    </edge>
    <edge id=":12107495946_1" function="internal">
        <lane id=":12107495946_1_0" index="0" allow="pedestrian delivery bicycle" speed="5.06" length="5.01" shape="273.36,191.30 272.53,190.20 271.56,189.62 270.43,189.56 269.14,190.02"/>
    </edge>
    <edge id=":12107495948_0" function="internal">
        <lane id=":12107495948_0_0" index="0" allow="pedestrian delivery bicycle" speed="5.56" length="6.20" shape="76.27,269.17 78.87,274.80"/>
    </edge>
    <edge id=":12107495948_1" function="internal">
        <lane id=":12107495948_1_0" index="0" allow="pedestrian delivery bicycle" speed="4.98" length="5.07" shape="76.27,269.17 77.03,270.35 77.98,270.97 79.11,271.04 80.43,270.57"/>
    </edge>
    <edge id=":12107495949_0" function="internal">
        <lane id=":12107495949_0_0" index="0" allow="pedestrian delivery bicycle" speed="5.17" length="5.09" shape="88.01,286.98 86.85,287.81 86.21,288.80 86.08,289.93 86.45,291.22"/>
    </edge>
    <edge id=":12107495949_1" function="internal">
        <lane id=":12107495949_1_0" index="0" allow="pedestrian delivery bicycle" speed="5.56" length="6.21" shape="83.85,285.59 86.45,291.22"/>
    </edge>
    <edge id=":12107495952_0" function="internal">
        <lane id=":12107495952_0_0" index="0" allow="pedestrian delivery bicycle" speed="5.04" length="5.00" shape="220.78,215.91 219.50,216.38 218.37,216.32 217.40,215.74 216.58,214.64"/>
    </edge>
    <edge id=":12107495952_1" function="internal">
        <lane id=":12107495952_1_0" index="0" allow="pedestrian delivery bicycle" speed="5.56" length="6.20" shape="220.78,215.91 215.32,218.83"/>
    </edge>
    <edge id=":12107495952_2" function="internal">
        <lane id=":12107495952_2_0" index="0" allow="pedestrian delivery bicycle" speed="5.56" length="6.20" shape="219.52,220.10 216.58,214.64"/>
    </edge>
    <edge id=":12107495952_3" function="internal">
        <lane id=":12107495952_3_0" index="0" allow="pedestrian delivery bicycle" speed="5.04" length="5.00" shape="219.52,220.10 218.70,219.00 217.73,218.42 216.60,218.36 215.32,218.83"/>
    </edge>
    <edge id=":12107495953_0" function="internal">
        <lane id=":12107495953_0_0" index="0" allow="pedestrian delivery bicycle" speed="5.04" length="5.00" shape="128.95,225.33 127.66,225.81 126.53,225.75 125.56,225.17 124.75,224.06"/>
    </edge>
    <edge id=":12107495953_1" function="internal">
        <lane id=":12107495953_1_0" index="0" allow="pedestrian delivery bicycle" speed="5.56" length="9.41" shape="128.95,225.33 120.66,229.79"/>
    </edge>
    <edge id=":12107495953_2" function="internal">
        <lane id=":12107495953_2_0" index="0" allow="pedestrian delivery bicycle" speed="5.56" length="7.77" shape="128.95,225.33 126.61,226.81 125.14,228.26 124.56,229.67 124.85,231.06"/>
    </edge>
    <edge id=":12107495953_3" function="internal">
        <lane id=":12107495953_3_0" index="0" allow="pedestrian delivery bicycle" speed="5.56" length="6.22" shape="127.68,229.55 124.75,224.06"/>
    </edge>
    <edge id=":12107495953_4" function="internal">
        <lane id=":12107495953_4_0" index="0" allow="pedestrian delivery bicycle" speed="5.56" length="7.76" shape="127.68,229.55 126.69,228.54 125.19,228.24 123.18,228.65 120.66,229.79"/>
    </edge>
    <edge id=":12107495953_5" function="internal">
        <lane id=":12107495953_5_0" index="0" allow="pedestrian delivery bicycle" speed="3.65" length="4.67" shape="127.68,229.55 126.40,228.87 125.51,228.89 124.99,229.62 124.85,231.06"/>
    </edge>
    <edge id=":12107495953_6" function="internal">
        <lane id=":12107495953_6_0" index="0" allow="pedestrian delivery bicycle" speed="5.05" length="5.02" shape="121.93,225.57 122.40,226.86 122.34,228.00 121.76,228.97 120.66,229.79"/>
    </edge>
    <edge id=":12107495953_7" function="internal">
        <lane id=":12107495953_7_0" index="0" allow="pedestrian delivery bicycle" speed="5.56" length="6.22" shape="121.93,225.57 124.85,231.06"/>
    </edge>
    <edge id=":12107495953_8" function="internal">
        <lane id=":12107495953_8_0" index="0" allow="pedestrian delivery bicycle" speed="3.65" length="4.67" shape="121.93,225.57 123.20,226.25 124.09,226.23 124.61,225.50 124.75,224.06"/>
    </edge>
    <edge id=":12107495955_0" function="internal">
        <lane id=":12107495955_0_0" index="0" allow="pedestrian delivery bicycle" speed="5.04" length="5.00" shape="145.43,256.26 144.14,256.73 143.01,256.67 142.04,256.09 141.23,254.99"/>
    </edge>
    <edge id=":12107495955_1" function="internal">
        <lane id=":12107495955_1_0" index="0" allow="pedestrian delivery bicycle" speed="5.56" length="9.40" shape="145.43,256.26 137.13,260.70"/>
    </edge>
    <edge id=":12107495955_2" function="internal">
        <lane id=":12107495955_2_0" index="0" allow="pedestrian delivery bicycle" speed="5.56" length="7.76" shape="145.43,256.26 143.09,257.73 141.62,259.18 141.04,260.59 141.33,261.97"/>
    </edge>
    <edge id=":12107495955_3" function="internal">
        <lane id=":12107495955_3_0" index="0" allow="pedestrian delivery bicycle" speed="5.56" length="6.21" shape="144.15,260.46 141.23,254.99"/>
    </edge>
    <edge id=":12107495955_4" function="internal">
        <lane id=":12107495955_4_0" index="0" allow="pedestrian delivery bicycle" speed="5.56" length="7.76" shape="144.15,260.46 143.17,259.45 141.67,259.15 139.66,259.57 137.13,260.70"/>
    </edge>
    <edge id=":12107495955_5" function="internal">
        <lane id=":12107495955_5_0" index="0" allow="pedestrian delivery bicycle" speed="3.65" length="4.67" shape="144.15,260.46 142.88,259.78 141.99,259.81 141.47,260.54 141.33,261.97"/>
    </edge>
    <edge id=":12107495955_6" function="internal">
        <lane id=":12107495955_6_0" index="0" allow="pedestrian delivery bicycle" speed="5.05" length="5.01" shape="138.41,256.49 138.88,257.78 138.82,258.91 138.24,259.89 137.13,260.70"/>
    </edge>
    <edge id=":12107495955_7" function="internal">
        <lane id=":12107495955_7_0" index="0" allow="pedestrian delivery bicycle" speed="5.56" length="6.21" shape="138.41,256.49 141.33,261.97"/>
    </edge>
    <edge id=":12107495955_8" function="internal">
        <lane id=":12107495955_8_0" index="0" allow="pedestrian delivery bicycle" speed="3.65" length="4.67" shape="138.41,256.49 139.68,257.17 140.57,257.15 141.09,256.42 141.23,254.99"/>
    </edge>
    <edge id=":12107495958_0" function="internal">
        <lane id=":12107495958_0_0" index="0" allow="pedestrian delivery bicycle" speed="5.56" length="6.20" shape="286.16,221.03 291.63,218.10"/>
    </edge>
    <edge id=":12107495958_1" function="internal">
        <lane id=":12107495958_1_0" index="0" allow="pedestrian delivery bicycle" speed="5.03" length="5.01" shape="286.16,221.03 287.27,220.22 287.85,219.24 287.89,218.12 287.41,216.83"/>
    </edge>
    <edge id=":12107495960_0" function="internal">
        <lane id=":12107495960_0_0" index="0" allow="pedestrian delivery bicycle" speed="5.56" length="6.65" shape="290.27,179.70 288.36,180.19 287.06,180.59 285.82,181.13 284.07,182.03"/>
    </edge>
    <edge id=":12107495960_1" function="internal">
        <lane id=":12107495960_1_0" index="0" allow="pedestrian delivery bicycle" speed="4.80" length="5.38" shape="290.27,179.70 288.84,180.29 288.09,181.16 288.01,182.30 288.59,183.73"/>
    </edge>
    <edge id=":12107495964_0" function="internal">
        <lane id=":12107495964_0_0" index="0" allow="pedestrian delivery bicycle" speed="5.18" length="5.09" shape="73.34,255.21 72.18,256.04 71.54,257.02 71.41,258.16 71.78,259.45"/>
    </edge>
    <edge id=":12107495964_1" function="internal">
        <lane id=":12107495964_1_0" index="0" allow="pedestrian delivery bicycle" speed="5.56" length="6.20" shape="69.18,253.82 71.78,259.45"/>
    </edge>
    <edge id=":12107495971_0" function="internal">
        <lane id=":12107495971_0_0" index="0" allow="pedestrian delivery bicycle" speed="5.05" length="5.01" shape="227.73,235.42 227.25,234.13 227.31,233.00 227.89,232.02 228.99,231.21"/>
    </edge>
    <edge id=":12107495971_1" function="internal">
        <lane id=":12107495971_1_0" index="0" allow="pedestrian delivery bicycle" speed="5.56" length="6.20" shape="227.73,235.42 224.79,229.95"/>
    </edge>
    <edge id=":12107495971_2" function="internal">
        <lane id=":12107495971_2_0" index="0" allow="pedestrian delivery bicycle" speed="5.56" length="6.20" shape="223.53,234.15 228.99,231.21"/>
    </edge>
    <edge id=":12107495971_3" function="internal">
        <lane id=":12107495971_3_0" index="0" allow="pedestrian delivery bicycle" speed="5.04" length="5.01" shape="223.53,234.15 224.63,233.34 225.21,232.36 225.26,231.23 224.79,229.95"/>
    </edge>
    <edge id=":2338994126_0" function="internal">
        <lane id=":2338994126_0_0" index="0" allow="pedestrian delivery bicycle" speed="4.99" length="4.89" shape="384.91,37.10 384.30,38.02 383.40,38.49 382.20,38.50 380.70,38.06"/>
    </edge>
    <edge id=":2338994126_1" function="internal">
        <lane id=":2338994126_1_0" index="0" disallow="tram rail_urban rail rail_electric rail_fast ship container cable_car subway aircraft wheelchair scooter drone" speed="27.78" length="8.46" shape="384.91,37.10 381.97,45.25"/>
        <lane id=":2338994126_1_1" index="1" disallow="tram rail_urban rail rail_electric rail_fast ship container cable_car subway aircraft wheelchair scooter drone" speed="27.78" length="8.46" shape="387.88,38.28 385.01,46.24"/>
        <lane id=":2338994126_1_2" index="2" disallow="tram rail_urban rail rail_electric rail_fast ship container cable_car subway aircraft wheelchair scooter drone" speed="27.78" length="8.46" shape="390.85,39.47 388.05,47.23"/>
    </edge>
    <edge id=":2338994126_4" function="internal">
        <lane id=":2338994126_4_0" index="0" allow="pedestrian delivery bicycle" speed="5.20" length="5.10" shape="379.91,41.20 381.16,41.90 381.92,42.82 382.19,43.93 381.97,45.25"/>
    </edge>
    <edge id=":2338994126_5" function="internal">
        <lane id=":2338994126_5_0" index="0" allow="pedestrian delivery bicycle" speed="3.66" length="4.72" shape="379.91,41.20 381.29,40.71 381.87,40.02 381.68,39.14 380.70,38.06"/>
    </edge>
    <edge id=":3640047848_0" function="internal">
        <lane id=":3640047848_0_0" index="0" disallow="tram rail_urban rail rail_electric rail_fast ship container cable_car subway aircraft wheelchair scooter drone" speed="6.39" length="9.04" shape="93.49,344.45 91.16,345.33 89.14,345.23 87.43,344.15 86.03,342.08"/>
    </edge>
    <edge id=":3640047848_1" function="internal">
        <lane id=":3640047848_1_0" index="0" disallow="tram rail_urban rail rail_electric rail_fast ship container cable_car subway aircraft wheelchair scooter drone" speed="27.78" length="14.46" shape="93.49,344.45 80.84,351.38"/>
        <lane id=":3640047848_1_1" index="1" disallow="tram rail_urban rail rail_electric rail_fast ship container cable_car subway aircraft wheelchair scooter drone" speed="27.78" length="14.46" shape="95.04,347.25 82.37,354.19"/>
        <lane id=":3640047848_1_2" index="2" disallow="tram rail_urban rail rail_electric rail_fast ship container cable_car subway aircraft wheelchair scooter drone" speed="27.78" length="14.46" shape="96.59,350.05 83.89,357.00"/>
        <lane id=":3640047848_1_3" index="3" disallow="tram rail_urban rail rail_electric rail_fast ship container cable_car subway aircraft wheelchair scooter drone" speed="27.78" length="14.46" shape="98.14,352.85 85.42,359.82"/>
    </edge>
    <edge id=":3640047848_5" function="internal">
        <lane id=":3640047848_5_0" index="0" disallow="tram rail_urban rail rail_electric rail_fast ship container cable_car subway aircraft wheelchair scooter drone" speed="6.69" length="9.29" shape="83.15,343.48 83.96,345.95 83.85,348.09 82.81,349.90 80.84,351.38"/>
        <lane id=":3640047848_5_1" index="1" disallow="tram rail_urban rail rail_electric rail_fast ship container cable_car subway aircraft wheelchair scooter drone" speed="7.50" length="11.92" shape="83.15,343.48 84.58,347.20 84.93,350.23 84.19,352.56 82.37,354.19"/>
    </edge>
    <edge id=":3640047848_7" function="internal">
        <lane id=":3640047848_7_0" index="0" disallow="tram rail_urban rail rail_electric rail_fast ship container cable_car subway aircraft wheelchair scooter drone" speed="3.65" length="4.67" shape="83.15,343.48 84.39,344.21 85.29,344.22 85.83,343.51 86.03,342.08"/>
    </edge>
    <edge id=":4721902072_0" function="internal">
        <lane id=":4721902072_0_0" index="0" disallow="tram rail_urban rail rail_electric rail_fast ship container cable_car subway aircraft wheelchair scooter drone" speed="6.80" length="8.14" shape="114.26,396.80 113.83,394.56 114.06,392.63 114.96,391.00 116.53,389.68"/>
        <lane id=":4721902072_0_1" index="1" disallow="tram rail_urban rail rail_electric rail_fast ship container cable_car subway aircraft wheelchair scooter drone" speed="7.64" length="10.50" shape="114.26,396.80 113.34,393.21 113.14,390.38 113.65,388.29 114.86,386.95"/>
    </edge>
    <edge id=":4721902072_2" function="internal">
        <lane id=":4721902072_2_0" index="0" disallow="tram rail_urban rail rail_electric rail_fast ship container cable_car subway aircraft wheelchair scooter drone" speed="27.78" length="8.96" shape="108.54,394.23 116.53,389.68"/>
        <lane id=":4721902072_2_1" index="1" disallow="tram rail_urban rail rail_electric rail_fast ship container cable_car subway aircraft wheelchair scooter drone" speed="27.78" length="8.96" shape="107.01,391.42 114.86,386.95"/>
        <lane id=":4721902072_2_2" index="2" disallow="tram rail_urban rail rail_electric rail_fast ship container cable_car subway aircraft wheelchair scooter drone" speed="27.78" length="8.96" shape="105.48,388.61 113.20,384.22"/>
        <lane id=":4721902072_2_3" index="3" disallow="tram rail_urban rail rail_electric rail_fast ship container cable_car subway aircraft wheelchair scooter drone" speed="27.78" length="8.96" shape="103.94,385.81 111.53,381.49"/>
    </edge>
    <edge id=":4721902084_0" function="internal">
        <lane id=":4721902084_0_0" index="0" disallow="tram rail_urban rail rail_electric rail_fast ship container cable_car subway aircraft wheelchair scooter drone" speed="6.15" length="8.75" shape="98.80,399.53 101.16,398.63 103.13,398.71 104.70,399.78 105.87,401.83"/>
    </edge>
    <edge id=":4721902084_1" function="internal">
        <lane id=":4721902084_1_0" index="0" disallow="tram rail_urban rail rail_electric rail_fast ship container cable_car subway aircraft wheelchair scooter drone" speed="27.78" length="10.87" shape="98.80,399.53 108.37,394.33"/>
        <lane id=":4721902084_1_1" index="1" disallow="tram rail_urban rail rail_electric rail_fast ship container cable_car subway aircraft wheelchair scooter drone" speed="27.78" length="10.87" shape="97.28,396.71 106.83,391.52"/>
        <lane id=":4721902084_1_2" index="2" disallow="tram rail_urban rail rail_electric rail_fast ship container cable_car subway aircraft wheelchair scooter drone" speed="27.78" length="10.87" shape="95.75,393.90 105.30,388.71"/>
        <lane id=":4721902084_1_3" index="3" disallow="tram rail_urban rail rail_electric rail_fast ship container cable_car subway aircraft wheelchair scooter drone" speed="27.78" length="10.87" shape="94.23,391.09 103.77,385.90"/>
    </edge>
    <edge id=":5427983778_0" function="internal">
        <lane id=":5427983778_0_0" index="0" allow="pedestrian delivery bicycle" speed="3.65" length="4.67" shape="2.75,318.46 1.98,319.68 1.94,320.57 2.63,321.14 4.05,321.38"/>
    </edge>
    <edge id=":5427983779_0" function="internal">
        <lane id=":5427983779_0_0" index="0" allow="pedestrian delivery bicycle" speed="5.07" length="4.97" shape="41.19,301.67 39.86,301.94 38.76,301.74 37.87,301.04 37.20,299.86"/>
    </edge>
    <edge id=":5427983779_1" function="internal">
        <lane id=":5427983779_1_0" index="0" allow="pedestrian delivery bicycle" speed="5.56" length="9.28" shape="41.19,301.67 32.58,305.14"/>
    </edge>
    <edge id=":5427983779_2" function="internal">
        <lane id=":5427983779_2_0" index="0" allow="pedestrian delivery bicycle" speed="3.65" length="4.67" shape="41.19,301.67 40.33,302.83 40.23,303.71 40.88,304.33 42.28,304.67"/>
    </edge>
    <edge id=":5427983779_3" function="internal">
        <lane id=":5427983779_3_0" index="0" allow="pedestrian delivery bicycle" speed="5.56" length="9.05" shape="33.89,308.06 42.28,304.67"/>
    </edge>
    <edge id=":5427983779_4" function="internal">
        <lane id=":5427983779_4_0" index="0" allow="pedestrian delivery bicycle" speed="5.56" length="9.98" shape="33.89,308.06 36.18,306.62 37.50,304.77 37.83,302.52 37.20,299.86"/>
    </edge>
    <edge id=":5427983779_5" function="internal">
        <lane id=":5427983779_5_0" index="0" allow="pedestrian delivery bicycle" speed="3.65" length="4.67" shape="33.89,308.06 34.66,306.84 34.70,305.95 34.00,305.38 32.58,305.14"/>
    </edge>
    <edge id=":5427983779_6" function="internal">
        <lane id=":5427983779_6_0" index="0" allow="pedestrian delivery bicycle" speed="5.11" length="4.99" shape="34.22,301.04 34.54,302.37 34.38,303.50 33.72,304.42 32.58,305.14"/>
    </edge>
    <edge id=":5427983779_7" function="internal">
        <lane id=":5427983779_7_0" index="0" allow="pedestrian delivery bicycle" speed="5.56" length="10.02" shape="34.22,301.04 35.57,303.42 37.37,304.81 39.60,305.23 42.28,304.67"/>
    </edge>
    <edge id=":5427983779_8" function="internal">
        <lane id=":5427983779_8_0" index="0" allow="pedestrian delivery bicycle" speed="3.65" length="4.67" shape="34.22,301.04 35.40,301.86 36.30,301.94 36.89,301.27 37.20,299.86"/>
    </edge>
    <edge id=":5625728498_0" function="internal">
        <lane id=":5625728498_0_0" index="0" allow="pedestrian delivery bicycle" speed="5.03" length="5.01" shape="170.08,302.05 168.80,302.55 167.67,302.51 166.69,301.95 165.87,300.85"/>
    </edge>
    <edge id=":5625728498_1" function="internal">