<?xml version="1.0" encoding="UTF-8"?>

<!-- generated on 2025-06-02 02:50:51 by Eclipse SUMO netconvert Version 1.23.1
<netconvertConfiguration xmlns:xsi="http://www.w3.org/2001/XMLSchema-instance" xsi:noNamespaceSchemaLocation="http://sumo.dlr.de/xsd/netconvertConfiguration.xsd">

    <input>
        <osm-files value="data/map.osm"/>
    </input>

    <output>
        <output-file value="data/map.net.xml"/>
    </output>

    <projection>
        <proj.utm value="true"/>
    </projection>

    <processing>
        <roundabouts.guess value="true"/>
    </processing>

    <tls_building>
        <tls.guess-signals value="true"/>
    </tls_building>

</netconvertConfiguration>
-->

<net version="1.20" junctionCornerDetail="5" limitTurnSpeed="5.50" xmlns:xsi="http://www.w3.org/2001/XMLSchema-instance" xsi:noNamespaceSchemaLocation="http://sumo.dlr.de/xsd/net_file.xsd">

    <location netOffset="-351529.87,-2769487.64" convBoundary="0.00,0.00,944.39,779.55" origBoundary="121.528333,25.033736,121.537693,25.040794" projParameter="+proj=utm +zone=51 +ellps=WGS84 +datum=WGS84 +units=m +no_defs"/>

    <type id="highway.footway" priority="1" numLanes="1" speed="2.78" allow="pedestrian" oneway="1" width="2.00"/>
    <type id="highway.residential" priority="3" numLanes="1" speed="13.89" disallow="tram rail_urban rail rail_electric rail_fast ship container cable_car subway aircraft wheelchair scooter drone" oneway="0"/>
    <type id="highway.secondary" priority="11" numLanes="1" speed="27.78" disallow="tram rail_urban rail rail_electric rail_fast ship container cable_car subway aircraft wheelchair scooter drone" oneway="0"/>
    <type id="highway.service" priority="1" numLanes="1" speed="5.56" allow="pedestrian delivery bicycle" oneway="0"/>
    <type id="highway.unclassified" priority="4" numLanes="1" speed="13.89" disallow="tram rail_urban rail rail_electric rail_fast ship container cable_car subway aircraft wheelchair scooter drone" oneway="0"/>
    <type id="railway.subway" priority="18" numLanes="1" speed="27.78" allow="subway" oneway="1"/>

    <edge id=":1446842433_0" function="internal">
        <lane id=":1446842433_0_0" index="0" disallow="tram rail_urban rail rail_electric rail_fast ship container cable_car subway aircraft wheelchair scooter drone" speed="5.93" length="7.24" shape="353.81,508.64 353.39,507.23 352.30,506.24 350.54,505.69 348.09,505.56"/>
    </edge>
    <edge id=":1446842433_1" function="internal">
        <lane id=":1446842433_1_0" index="0" disallow="tram rail_urban rail rail_electric rail_fast ship container cable_car subway aircraft wheelchair scooter drone" speed="3.65" length="4.67" shape="353.81,508.64 354.55,507.40 355.33,506.97 356.15,507.33 357.00,508.49"/>
    </edge>
    <edge id=":1446842433_2" function="internal">
        <lane id=":1446842433_2_0" index="0" disallow="tram rail_urban rail rail_electric rail_fast ship container cable_car subway aircraft wheelchair scooter drone" speed="5.86" length="7.20" shape="362.48,505.12 360.03,505.39 358.30,506.05 357.29,507.08 357.00,508.49"/>
    </edge>
    <edge id=":1446842433_3" function="internal">
        <lane id=":1446842433_3_0" index="0" disallow="tram rail_urban rail rail_electric rail_fast ship container cable_car subway aircraft wheelchair scooter drone" speed="27.78" length="14.40" shape="362.48,505.12 348.09,505.56"/>
        <lane id=":1446842433_3_1" index="1" disallow="tram rail_urban rail rail_electric rail_fast ship container cable_car subway aircraft wheelchair scooter drone" speed="27.78" length="14.40" shape="362.38,501.92 347.99,502.36"/>
    </edge>
    <edge id=":1446842434_0" function="internal">
        <lane id=":1446842434_0_0" index="0" disallow="tram rail_urban rail rail_electric rail_fast ship container cable_car subway aircraft wheelchair scooter drone" speed="5.95" length="6.88" shape="338.85,505.84 336.59,506.10 334.95,506.74 333.94,507.74 333.54,509.11"/>
    </edge>
    <edge id=":1446842434_1" function="internal">
        <lane id=":1446842434_1_0" index="0" disallow="tram rail_urban rail rail_electric rail_fast ship container cable_car subway aircraft wheelchair scooter drone" speed="27.78" length="10.55" shape="338.85,505.84 328.30,506.16"/>
        <lane id=":1446842434_1_1" index="1" disallow="tram rail_urban rail rail_electric rail_fast ship container cable_car subway aircraft wheelchair scooter drone" speed="27.78" length="10.55" shape="338.75,502.64 328.21,502.97"/>
    </edge>
    <edge id=":1446842457_0" function="internal">
        <lane id=":1446842457_0_0" index="0" disallow="tram rail_urban rail rail_electric rail_fast ship container cable_car subway aircraft wheelchair scooter drone" speed="13.89" length="11.13" shape="336.86,560.02 338.95,570.95"/>
    </edge>
    <edge id=":1446842457_1" function="internal">
        <lane id=":1446842457_1_0" index="0" disallow="tram rail_urban rail rail_electric rail_fast ship container cable_car subway aircraft wheelchair scooter drone" speed="6.25" length="9.05" shape="336.86,560.02 336.89,562.54 336.09,564.37 334.44,565.50 331.96,565.94"/>
    </edge>
    <edge id=":1446842467_0" function="internal">
        <lane id=":1446842467_0_0" index="0" disallow="tram rail_urban rail rail_electric rail_fast ship container cable_car subway aircraft wheelchair scooter drone" speed="6.85" length="9.41" shape="394.71,576.90 395.40,579.46 396.66,581.25 398.52,582.28 400.95,582.55"/>
    </edge>
    <edge id=":1446842467_1" function="internal">
        <lane id=":1446842467_1_0" index="0" disallow="tram rail_urban rail rail_electric rail_fast ship container cable_car subway aircraft wheelchair scooter drone" speed="13.89" length="11.69" shape="394.71,576.90 394.87,580.11 394.57,582.70 394.17,585.31 394.00,588.54"/>
    </edge>
    <edge id=":1446842467_2" function="internal">
        <lane id=":1446842467_2_0" index="0" disallow="tram rail_urban rail rail_electric rail_fast ship container cable_car subway aircraft wheelchair scooter drone" speed="3.65" length="1.44" shape="394.71,576.90 394.08,578.20"/>
    </edge>
    <edge id=":1446842467_6" function="internal">
        <lane id=":1446842467_6_0" index="0" disallow="tram rail_urban rail rail_electric rail_fast ship container cable_car subway aircraft wheelchair scooter drone" speed="3.65" length="3.23" shape="394.08,578.20 393.34,578.70 392.49,578.41 391.54,577.33"/>
    </edge>
    <edge id=":1446842467_3" function="internal">
        <lane id=":1446842467_3_0" index="0" disallow="tram rail_urban rail rail_electric rail_fast ship container cable_car subway aircraft wheelchair scooter drone" speed="6.39" length="9.04" shape="386.62,583.41 389.06,582.86 390.69,581.67 391.51,579.82 391.54,577.33"/>
    </edge>
    <edge id=":1446842467_4" function="internal">
        <lane id=":1446842467_4_0" index="0" disallow="tram rail_urban rail rail_electric rail_fast ship container cable_car subway aircraft wheelchair scooter drone" speed="13.89" length="14.36" shape="386.62,583.41 400.95,582.55"/>
    </edge>
    <edge id=":1446842467_5" function="internal">
        <lane id=":1446842467_5_0" index="0" disallow="tram rail_urban rail rail_electric rail_fast ship container cable_car subway aircraft wheelchair scooter drone" speed="6.78" length="6.40" shape="386.62,583.41 389.81,583.52 392.10,584.41 392.58,584.98"/>
    </edge>
    <edge id=":1446842467_7" function="internal">
        <lane id=":1446842467_7_0" index="0" disallow="tram rail_urban rail rail_electric rail_fast ship container cable_car subway aircraft wheelchair scooter drone" speed="6.78" length="3.94" shape="392.58,584.98 393.50,586.08 394.00,588.54"/>
    </edge>
    <edge id=":1446842472_0" function="internal">
        <lane id=":1446842472_0_0" index="0" disallow="tram rail_urban rail rail_electric rail_fast ship container cable_car subway aircraft wheelchair scooter drone" speed="7.36" length="2.66" shape="342.79,593.04 343.29,590.42"/>
    </edge>
    <edge id=":1446842472_1" function="internal">
        <lane id=":1446842472_1_0" index="0" disallow="tram rail_urban rail rail_electric rail_fast ship container cable_car subway aircraft wheelchair scooter drone" speed="3.73" length="1.78" shape="342.79,593.04 343.19,591.55 343.35,591.38"/>
    </edge>
    <edge id=":1446842472_6" function="internal">
        <lane id=":1446842472_6_0" index="0" disallow="tram rail_urban rail rail_electric rail_fast ship container cable_car subway aircraft wheelchair scooter drone" speed="7.36" length="8.09" shape="343.29,590.42 343.32,590.29 344.66,588.25 346.79,586.92 349.73,586.30"/>
    </edge>
    <edge id=":1446842472_7" function="internal">
        <lane id=":1446842472_7_0" index="0" disallow="tram rail_urban rail rail_electric rail_fast ship container cable_car subway aircraft wheelchair scooter drone" speed="3.73" length="3.21" shape="343.35,591.38 343.86,590.87 344.81,591.00 346.03,591.95"/>
    </edge>
    <edge id=":1446842472_2" function="internal">
        <lane id=":1446842472_2_0" index="0" disallow="tram rail_urban rail rail_electric rail_fast ship container cable_car subway aircraft wheelchair scooter drone" speed="7.36" length="10.53" shape="341.38,581.65 342.34,583.90 344.06,585.42 346.52,586.22 349.73,586.30"/>
    </edge>
    <edge id=":1446842472_3" function="internal">
        <lane id=":1446842472_3_0" index="0" disallow="tram rail_urban rail rail_electric rail_fast ship container cable_car subway aircraft wheelchair scooter drone" speed="13.89" length="11.49" shape="341.38,581.65 342.60,584.62 344.20,586.75 345.54,588.92 346.03,591.95"/>
    </edge>
    <edge id=":1446842472_4" function="internal">
        <lane id=":1446842472_4_0" index="0" disallow="tram rail_urban rail rail_electric rail_fast ship container cable_car subway aircraft wheelchair scooter drone" speed="13.89" length="13.52" shape="336.24,587.25 349.73,586.30"/>
    </edge>
    <edge id=":1446842472_5" function="internal">
        <lane id=":1446842472_5_0" index="0" disallow="tram rail_urban rail rail_electric rail_fast ship container cable_car subway aircraft wheelchair scooter drone" speed="7.23" length="12.27" shape="336.24,587.25 340.60,587.31 343.69,588.12 345.50,589.66 346.03,591.95"/>
    </edge>
    <edge id=":3083670357_0" function="internal">
        <lane id=":3083670357_0_0" index="0" disallow="tram rail_urban rail rail_electric rail_fast ship container cable_car subway aircraft wheelchair scooter drone" speed="27.78" length="0.30" shape="634.34,525.34 634.06,525.35"/>
        <lane id=":3083670357_0_1" index="1" disallow="tram rail_urban rail rail_electric rail_fast ship container cable_car subway aircraft wheelchair scooter drone" speed="27.78" length="0.30" shape="634.23,522.14 633.92,522.15"/>
    </edge>
    <edge id=":3083670358_0" function="internal">
        <lane id=":3083670358_0_0" index="0" disallow="tram rail_urban rail rail_electric rail_fast ship container cable_car subway aircraft wheelchair scooter drone" speed="27.78" length="0.26" shape="631.95,444.85 631.76,444.86"/>
        <lane id=":3083670358_0_1" index="1" disallow="tram rail_urban rail rail_electric rail_fast ship container cable_car subway aircraft wheelchair scooter drone" speed="27.78" length="0.26" shape="631.85,441.65 631.52,441.67"/>
    </edge>
    <edge id=":3083670359_0" function="internal">
        <lane id=":3083670359_0_0" index="0" disallow="tram rail_urban rail rail_electric rail_fast ship container cable_car subway aircraft wheelchair scooter drone" speed="27.78" length="0.10" shape="633.17,491.00 633.17,491.00"/>
        <lane id=":3083670359_0_1" index="1" disallow="tram rail_urban rail rail_electric rail_fast ship container cable_car subway aircraft wheelchair scooter drone" speed="27.78" length="0.10" shape="633.08,487.80 633.08,487.80"/>
    </edge>
    <edge id=":3083670360_0" function="internal">
        <lane id=":3083670360_0_0" index="0" disallow="tram rail_urban rail rail_electric rail_fast ship container cable_car subway aircraft wheelchair scooter drone" speed="27.78" length="0.10" shape="632.82,478.77 632.82,478.77"/>
    </edge>
    <edge id=":3083670360_1" function="internal">
        <lane id=":3083670360_1_0" index="0" allow="bus bicycle" speed="27.78" length="0.10" shape="632.73,475.57 632.73,475.57"/>
    </edge>
    <edge id=":3110834726_0" function="internal">
        <lane id=":3110834726_0_0" index="0" disallow="tram rail_urban rail rail_electric rail_fast ship container cable_car subway aircraft wheelchair scooter drone" speed="27.78" length="0.30" shape="929.13,470.09 928.83,470.10"/>
    </edge>
    <edge id=":3110834726_1" function="internal">
        <lane id=":3110834726_1_0" index="0" allow="bus bicycle" speed="27.78" length="0.30" shape="928.74,466.90 929.04,466.89"/>
    </edge>
    <edge id=":3110834727_0" function="internal">
        <lane id=":3110834727_0_0" index="0" disallow="tram rail_urban rail rail_electric rail_fast ship container cable_car subway aircraft wheelchair scooter drone" speed="27.78" length="0.29" shape="929.14,482.59 928.86,482.60"/>
        <lane id=":3110834727_0_1" index="1" disallow="tram rail_urban rail rail_electric rail_fast ship container cable_car subway aircraft wheelchair scooter drone" speed="27.78" length="0.29" shape="929.08,479.39 928.77,479.40"/>
    </edge>
    <edge id=":3111419929_0" function="internal">
        <lane id=":3111419929_0_0" index="0" disallow="tram rail_urban rail rail_electric rail_fast ship container cable_car subway aircraft wheelchair scooter drone" speed="7.13" length="10.20" shape="392.37,430.81 391.45,427.75 390.07,425.64 388.23,424.47 385.93,424.24"/>
    </edge>
    <edge id=":3111419929_1" function="internal">
        <lane id=":3111419929_1_0" index="0" disallow="tram rail_urban rail rail_electric rail_fast ship container cable_car subway aircraft wheelchair scooter drone" speed="6.83" length="11.53" shape="392.37,430.81 392.01,427.02 392.64,424.31 394.25,422.68 396.84,422.13"/>
    </edge>
    <edge id=":3111419929_2" function="internal">
        <lane id=":3111419929_2_0" index="0" disallow="tram rail_urban rail rail_electric rail_fast ship container cable_car subway aircraft wheelchair scooter drone" speed="13.89" length="11.02" shape="396.86,425.33 393.74,425.10 391.39,424.61 389.04,424.21 385.93,424.24"/>
    </edge>
    <edge id=":3111419929_3" function="internal">
        <lane id=":3111419929_3_0" index="0" disallow="tram rail_urban rail rail_electric rail_fast ship container cable_car subway aircraft wheelchair scooter drone" speed="3.65" length="1.25" shape="396.86,425.33 395.82,424.64"/>
    </edge>
    <edge id=":3111419929_4" function="internal">
        <lane id=":3111419929_4_0" index="0" disallow="tram rail_urban rail rail_electric rail_fast ship container cable_car subway aircraft wheelchair scooter drone" speed="3.65" length="3.42" shape="395.82,424.64 395.66,424.54 395.25,423.74 395.65,422.94 396.84,422.13"/>
    </edge>
    <edge id=":3228012809_0" function="internal">
        <lane id=":3228012809_0_0" index="0" disallow="tram rail_urban rail rail_electric rail_fast ship container cable_car subway aircraft wheelchair scooter drone" speed="13.89" length="10.86" shape="438.33,586.32 437.71,583.28 437.36,580.98 437.18,578.66 437.08,575.56"/>
    </edge>
    <edge id=":3228012809_1" function="internal">
        <lane id=":3228012809_1_0" index="0" disallow="tram rail_urban rail rail_electric rail_fast ship container cable_car subway aircraft wheelchair scooter drone" speed="6.38" length="8.61" shape="432.13,581.28 434.35,580.86 435.91,579.77 436.82,578.01 437.08,575.56"/>
    </edge>
    <edge id=":4504820306_0" function="internal">
        <lane id=":4504820306_0_0" index="0" disallow="tram rail_urban rail rail_electric rail_fast ship container cable_car subway aircraft wheelchair scooter drone" speed="27.78" length="5.37" shape="427.73,477.98 426.10,478.21 424.99,478.34 423.86,478.41 422.22,478.48"/>
        <lane id=":4504820306_0_1" index="1" disallow="tram rail_urban rail rail_electric rail_fast ship container cable_car subway aircraft wheelchair scooter drone" speed="27.78" length="5.37" shape="427.29,474.81 425.76,475.02 424.71,475.15 423.65,475.22 422.11,475.28"/>
    </edge>
    <edge id=":4504820313_0" function="internal">
        <lane id=":4504820313_0_0" index="0" disallow="tram rail_urban rail rail_electric rail_fast ship container cable_car subway aircraft wheelchair scooter drone" speed="27.78" length="0.30" shape="430.98,340.83 430.97,340.54"/>
        <lane id=":4504820313_0_1" index="1" disallow="tram rail_urban rail rail_electric rail_fast ship container cable_car subway aircraft wheelchair scooter drone" speed="27.78" length="0.30" shape="434.18,340.75 434.17,340.45"/>
        <lane id=":4504820313_0_2" index="2" disallow="tram rail_urban rail rail_electric rail_fast ship container cable_car subway aircraft wheelchair scooter drone" speed="27.78" length="0.30" shape="437.38,340.67 437.37,340.37"/>
        <lane id=":4504820313_0_3" index="3" disallow="tram rail_urban rail rail_electric rail_fast ship container cable_car subway aircraft wheelchair scooter drone" speed="27.78" length="0.30" shape="440.58,340.60 440.57,340.29"/>
    </edge>
    <edge id=":4539178732_0" function="internal">
        <lane id=":4539178732_0_0" index="0" disallow="tram rail_urban rail rail_electric rail_fast ship container cable_car subway aircraft wheelchair scooter drone" speed="27.78" length="0.28" shape="10.63,492.17 10.32,492.17"/>
        <lane id=":4539178732_0_1" index="1" disallow="tram rail_urban rail rail_electric rail_fast ship container cable_car subway aircraft wheelchair scooter drone" speed="27.78" length="0.28" shape="10.56,488.97 10.31,488.97"/>
    </edge>
    <edge id=":4865642922_0" function="internal">
        <lane id=":4865642922_0_0" index="0" disallow="tram rail_urban rail rail_electric rail_fast ship container cable_car subway aircraft wheelchair scooter drone" speed="27.78" length="6.35" shape="461.44,514.04 461.63,520.42"/>
        <lane id=":4865642922_0_1" index="1" disallow="tram rail_urban rail rail_electric rail_fast ship container cable_car subway aircraft wheelchair scooter drone" speed="27.78" length="6.35" shape="458.25,514.14 458.43,520.50"/>
        <lane id=":4865642922_0_2" index="2" disallow="tram rail_urban rail rail_electric rail_fast ship container cable_car subway aircraft wheelchair scooter drone" speed="27.78" length="6.35" shape="455.05,514.25 455.23,520.58"/>
        <lane id=":4865642922_0_3" index="3" disallow="tram rail_urban rail rail_electric rail_fast ship container cable_car subway aircraft wheelchair scooter drone" speed="27.78" length="6.35" shape="451.85,514.35 452.03,520.66"/>
    </edge>
    <edge id=":4865642923_0" function="internal">
        <lane id=":4865642923_0_0" index="0" disallow="tram rail_urban rail rail_electric rail_fast ship container cable_car subway aircraft wheelchair scooter drone" speed="13.75" length="7.11" shape="442.46,518.97 442.37,517.29 442.15,516.14 441.72,515.05 440.97,513.53"/>
        <lane id=":4865642923_0_1" index="1" disallow="tram rail_urban rail rail_electric rail_fast ship container cable_car subway aircraft wheelchair scooter drone" speed="15.30" length="7.11" shape="445.66,518.89 445.55,516.79 445.30,515.37 444.76,514.01 443.84,512.12"/>
        <lane id=":4865642923_0_2" index="2" disallow="tram rail_urban rail rail_electric rail_fast ship container cable_car subway aircraft wheelchair scooter drone" speed="16.70" length="7.11" shape="448.86,518.80 448.74,516.30 448.44,514.59 447.81,512.96 446.71,510.70"/>
    </edge>
    <edge id=":4865642924_0" function="internal">
        <lane id=":4865642924_0_0" index="0" disallow="tram rail_urban rail rail_electric rail_fast ship container cable_car subway aircraft wheelchair scooter drone" speed="27.78" length="0.71" shape="466.34,700.13 466.34,700.17 466.34,700.20 466.35,700.23 466.35,700.27"/>
        <lane id=":4865642924_0_1" index="1" disallow="tram rail_urban rail rail_electric rail_fast ship container cable_car subway aircraft wheelchair scooter drone" speed="27.78" length="0.71" shape="463.14,700.22 463.15,700.35 463.15,700.43 463.16,700.52 463.17,700.65"/>
        <lane id=":4865642924_0_2" index="2" disallow="tram rail_urban rail rail_electric rail_fast ship container cable_car subway aircraft wheelchair scooter drone" speed="27.78" length="0.71" shape="459.94,700.31 459.95,700.52 459.96,700.66 459.97,700.81 459.99,701.02"/>
        <lane id=":4865642924_0_3" index="3" disallow="tram rail_urban rail rail_electric rail_fast ship container cable_car subway aircraft wheelchair scooter drone" speed="27.78" length="0.71" shape="456.74,700.40 456.75,700.69 456.76,700.90 456.78,701.10 456.82,701.39"/>
        <lane id=":4865642924_0_4" index="4" disallow="tram rail_urban rail rail_electric rail_fast ship container cable_car subway aircraft wheelchair scooter drone" speed="27.78" length="0.71" shape="453.55,700.49 453.56,700.87 453.57,701.13 453.59,701.38 453.64,701.76"/>
    </edge>
    <edge id=":4865642945_0" function="internal">
        <lane id=":4865642945_0_0" index="0" allow="pedestrian delivery bicycle" speed="5.56" length="4.78" shape="467.35,608.17 472.13,608.03"/>
    </edge>
    <edge id=":4865642948_0" function="internal">
        <lane id=":4865642948_0_0" index="0" disallow="tram rail_urban rail rail_electric rail_fast ship container cable_car subway aircraft wheelchair scooter drone" speed="27.78" length="5.67" shape="475.44,510.30 473.66,510.36 472.44,510.33 471.23,510.18 469.47,509.90"/>
        <lane id=":4865642948_0_1" index="1" disallow="tram rail_urban rail rail_electric rail_fast ship container cable_car subway aircraft wheelchair scooter drone" speed="27.78" length="5.67" shape="475.29,507.10 473.71,507.15 472.63,507.12 471.55,506.99 469.98,506.74"/>
    </edge>
    <edge id=":4865642949_0" function="internal">
        <lane id=":4865642949_0_0" index="0" disallow="tram rail_urban rail rail_electric rail_fast ship container cable_car subway aircraft wheelchair scooter drone" speed="27.78" length="5.03" shape="475.04,496.32 470.03,496.43"/>
        <lane id=":4865642949_0_1" index="1" disallow="tram rail_urban rail rail_electric rail_fast ship container cable_car subway aircraft wheelchair scooter drone" speed="27.78" length="5.03" shape="474.98,493.12 469.95,493.23"/>
        <lane id=":4865642949_0_2" index="2" disallow="tram rail_urban rail rail_electric rail_fast ship container cable_car subway aircraft wheelchair scooter drone" speed="27.78" length="5.03" shape="474.91,489.92 469.87,490.03"/>
    </edge>
    <edge id=":4865642950_0" function="internal">
        <lane id=":4865642950_0_0" index="0" disallow="tram rail_urban rail rail_electric rail_fast ship container cable_car subway aircraft wheelchair scooter drone" speed="27.78" length="5.10" shape="474.82,483.43 469.72,483.65"/>
    </edge>
    <edge id=":4865642950_1" function="internal">
        <lane id=":4865642950_1_0" index="0" allow="bus bicycle" speed="27.78" length="5.20" shape="469.53,480.46 474.72,480.23"/>
    </edge>
    <edge id=":4865642950_2" function="internal">
        <lane id=":4865642950_2_0" index="0" allow="bus bicycle" speed="3.65" length="1.44" shape="469.53,480.46 470.78,481.19"/>
    </edge>
    <edge id=":4865642950_3" function="internal">
        <lane id=":4865642950_3_0" index="0" allow="bus bicycle" speed="3.65" length="3.23" shape="470.78,481.19 471.22,481.96 470.87,482.78 469.72,483.65"/>
    </edge>
    <edge id=":4865642951_0" function="internal">
        <lane id=":4865642951_0_0" index="0" disallow="tram rail_urban rail rail_electric rail_fast ship container cable_car subway aircraft wheelchair scooter drone" speed="27.78" length="5.62" shape="474.52,469.68 472.94,469.74 471.86,469.84 470.79,470.03 469.24,470.35"/>
        <lane id=":4865642951_0_1" index="1" disallow="tram rail_urban rail rail_electric rail_fast ship container cable_car subway aircraft wheelchair scooter drone" speed="27.78" length="5.62" shape="474.44,466.48 472.69,466.55 471.49,466.65 470.31,466.86 468.59,467.21"/>
    </edge>
    <edge id=":4865642952_0" function="internal">
        <lane id=":4865642952_0_0" index="0" disallow="tram rail_urban rail rail_electric rail_fast ship container cable_car subway aircraft wheelchair scooter drone" speed="27.78" length="6.34" shape="434.07,468.12 433.95,461.86"/>
        <lane id=":4865642952_0_1" index="1" disallow="tram rail_urban rail rail_electric rail_fast ship container cable_car subway aircraft wheelchair scooter drone" speed="27.78" length="6.34" shape="437.27,468.09 437.15,461.78"/>
        <lane id=":4865642952_0_2" index="2" disallow="tram rail_urban rail rail_electric rail_fast ship container cable_car subway aircraft wheelchair scooter drone" speed="27.78" length="6.34" shape="440.47,468.06 440.35,461.70"/>
        <lane id=":4865642952_0_3" index="3" disallow="tram rail_urban rail rail_electric rail_fast ship container cable_car subway aircraft wheelchair scooter drone" speed="27.78" length="6.34" shape="443.67,468.04 443.55,461.62"/>
    </edge>
    <edge id=":4865642953_0" function="internal">
        <lane id=":4865642953_0_0" index="0" disallow="tram rail_urban rail rail_electric rail_fast ship container cable_car subway aircraft wheelchair scooter drone" speed="27.78" length="5.00" shape="457.01,457.98 456.99,459.06 456.94,459.82 456.97,460.56 457.24,461.59"/>
        <lane id=":4865642953_0_1" index="1" disallow="tram rail_urban rail rail_electric rail_fast ship container cable_car subway aircraft wheelchair scooter drone" speed="27.78" length="5.00" shape="453.81,458.11 453.81,459.47 453.78,460.40 453.86,461.32 454.21,462.61"/>
        <lane id=":4865642953_0_2" index="2" disallow="tram rail_urban rail rail_electric rail_fast ship container cable_car subway aircraft wheelchair scooter drone" speed="27.78" length="5.00" shape="450.61,458.25 450.63,459.87 450.61,460.99 450.74,462.08 451.17,463.63"/>
        <lane id=":4865642953_0_3" index="3" disallow="tram rail_urban rail rail_electric rail_fast ship container cable_car subway aircraft wheelchair scooter drone" speed="27.78" length="5.00" shape="447.42,458.39 447.44,460.27 447.45,461.57 447.62,462.85 448.14,464.64"/>
    </edge>
    <edge id=":4865642958_0" function="internal">
        <lane id=":4865642958_0_0" index="0" disallow="tram rail_urban rail rail_electric rail_fast ship container cable_car subway aircraft wheelchair scooter drone" speed="13.89" length="4.55" shape="427.39,581.45 431.93,581.28"/>
    </edge>
    <edge id=":4865642960_0" function="internal">
        <lane id=":4865642960_0_0" index="0" disallow="tram rail_urban rail rail_electric rail_fast ship container cable_car subway aircraft wheelchair scooter drone" speed="27.78" length="5.56" shape="428.26,503.58 426.70,503.36 425.63,503.25 424.56,503.21 422.99,503.25"/>
        <lane id=":4865642960_0_1" index="1" disallow="tram rail_urban rail rail_electric rail_fast ship container cable_car subway aircraft wheelchair scooter drone" speed="27.78" length="5.56" shape="428.70,500.41 426.99,500.17 425.81,500.05 424.62,500.01 422.89,500.05"/>
    </edge>
    <edge id=":4865642961_0" function="internal">
        <lane id=":4865642961_0_0" index="0" disallow="tram rail_urban rail rail_electric rail_fast ship container cable_car subway aircraft wheelchair scooter drone" speed="27.78" length="5.03" shape="427.85,498.37 422.82,498.51"/>
        <lane id=":4865642961_0_1" index="1" disallow="tram rail_urban rail rail_electric rail_fast ship container cable_car subway aircraft wheelchair scooter drone" speed="27.78" length="5.03" shape="427.76,495.17 422.73,495.31"/>
        <lane id=":4865642961_0_2" index="2" disallow="tram rail_urban rail rail_electric rail_fast ship container cable_car subway aircraft wheelchair scooter drone" speed="27.78" length="5.03" shape="427.66,491.97 422.64,492.12"/>
    </edge>
    <edge id=":4865642961_3" function="internal">
        <lane id=":4865642961_3_0" index="0" allow="bus bicycle" speed="27.78" length="5.03" shape="422.55,488.92 427.57,488.77"/>
    </edge>
    <edge id=":4865642961_4" function="internal">
        <lane id=":4865642961_4_0" index="0" allow="bus bicycle" speed="3.65" length="1.44" shape="422.55,488.92 423.77,489.68"/>
    </edge>
    <edge id=":4865642961_5" function="internal">
        <lane id=":4865642961_5_0" index="0" allow="bus bicycle" speed="3.65" length="3.23" shape="423.77,489.68 424.19,490.47 423.82,491.28 422.64,492.12"/>
    </edge>
    <edge id=":619137510_0" function="internal">
        <lane id=":619137510_0_0" index="0" disallow="tram rail_urban rail rail_electric rail_fast ship container cable_car subway aircraft wheelchair scooter drone" speed="27.78" length="8.16" shape="568.58,492.83 566.18,493.15 564.58,493.73 562.98,494.30 560.58,494.55"/>
        <lane id=":619137510_0_1" index="1" disallow="tram rail_urban rail rail_electric rail_fast ship container cable_car subway aircraft wheelchair scooter drone" speed="27.78" length="8.16" shape="568.49,489.63 566.12,489.95 564.54,490.53 562.95,491.10 560.58,491.35"/>
        <lane id=":619137510_0_2" index="2" disallow="tram rail_urban rail rail_electric rail_fast ship container cable_car subway aircraft wheelchair scooter drone" speed="27.78" length="8.16" shape="568.49,489.63 566.12,489.45 564.54,488.93 562.95,488.40 560.58,488.15"/>
    </edge>
    <edge id=":619137631_0" function="internal">
        <lane id=":619137631_0_0" index="0" disallow="tram rail_urban rail rail_electric rail_fast ship container cable_car subway aircraft wheelchair scooter drone" speed="27.78" length="0.30" shape="727.21,522.04 726.91,522.05"/>
        <lane id=":619137631_0_1" index="1" disallow="tram rail_urban rail rail_electric rail_fast ship container cable_car subway aircraft wheelchair scooter drone" speed="27.78" length="0.30" shape="727.09,518.84 726.79,518.85"/>