<configuration>
  <input>
    <net-file value="map.net.xml"/>
    <route-files value="map.rou.xml"/>
    <additional-files value="parking.add.xml"/>
  </input>
  <time>
    <begin value="0"/>
    <end value="3600"/>  <!-- Durasi simulasi: 1 jam -->
  </time>
  <output>
    <tripinfo-output value="tripinfo.xml"/>
  </output>
</configuration>