<?xml version="1.0" encoding="UTF-8"?>

<!-- generated on 2025-06-01 18:33:51 by Eclipse SUMO polyconvert Version 1.23.1
<polyconvertConfiguration xmlns:xsi="http://www.w3.org/2001/XMLSchema-instance" xsi:noNamespaceSchemaLocation="http://sumo.dlr.de/xsd/polyconvertConfiguration.xsd">

    <input>
        <net-file value="test.net.xml"/>
        <osm-files value="map.osm"/>
        <type-file value="typemap.xml"/>
    </input>

    <output>
        <output-file value="map.poly.xml"/>
    </output>

</polyconvertConfiguration>
-->

<additional xmlns:xsi="http://www.w3.org/2001/XMLSchema-instance" xsi:noNamespaceSchemaLocation="http://sumo.dlr.de/xsd/additional_file.xsd">
    <location netOffset="-351529.87,-2769487.64" convBoundary="-1724.19,-1620.87,1857.43,948.42" origBoundary="121.511235,25.019254,121.546961,25.042320" projParameter="+proj=utm +zone=51 +ellps=WGS84 +datum=WGS84 +units=m +no_defs"/>

    <poly id="1038748500" type="building" color="255,230,230" fill="1" layer="-1.00" shape="307.230134,424.265196 317.829838,422.765620 316.049258,410.257339 305.449424,411.745842 307.230134,424.265196"/>
    <poly id="1038748501" type="building" color="255,230,230" fill="1" layer="-1.00" shape="319.008444,420.714744 341.801127,417.609722 339.708853,402.413216 316.916144,405.518240 319.008444,420.714744"/>
    <poly id="1068183453" type="unknown" color="51,128,255" fill="0" layer="-1.00" shape="442.819453,344.538783 445.977494,455.270165"/>
    <poly id="1068234507" type="unknown" color="51,128,255" fill="0" layer="-1.00" shape="450.288916,522.524623 451.770552,571.699580 450.488369,627.495056 452.309862,695.917404"/>
    <poly id="131473145" type="parking" color="184,184,179" fill="1" layer="-1.00" shape="324.960566,604.720592 342.483735,605.183999 342.866751,591.190137 339.203385,589.302556 327.499679,589.484913 324.960566,604.720592"/>
    <poly id="1322083834" type="landuse" color="194,194,130" fill="1" layer="-3.00" shape="312.787627,434.240268 340.495936,431.248058 342.358112,471.745941 314.284475,472.681874 312.787627,434.240268"/>
    <poly id="1333156940" type="landuse" color="194,194,130" fill="1" layer="-3.00" shape="491.417098,406.749702 492.080302,430.701113 470.033697,431.881552 469.634236,408.060200 491.417098,406.749702"/>
    <poly id="139206228" type="building" color="255,230,230" fill="1" layer="-1.00" shape="500.734787,430.352568 498.660090,429.799069 496.537703,429.500848 494.388047,429.479836 494.414579,430.997038 483.104855,431.230367 483.479360,449.026340 489.431221,454.433659 507.127184,454.064673 507.004119,448.295120 507.327000,448.291621 507.734699,446.802944 508.010989,445.293539 508.155868,443.763404 508.169577,442.234690 508.051996,440.696322 507.793394,439.181636 507.414072,437.701487 506.903820,436.244910 506.550789,436.259812 506.441175,430.800256 500.750998,430.917297 500.734787,430.352568"/>
    <poly id="229922772" type="unknown" color="51,128,255" fill="0" layer="-1.00" shape="456.732439,948.415185 455.863260,923.158956 452.012450,749.464747 448.310376,582.038294 446.155111,484.687590"/>
    <poly id="229922781" type="unknown" color="51,128,255" fill="0" layer="-1.00" shape="446.155111,484.687590 432.770926,-14.587245"/>
    <poly id="251587764" type="forest" color="140,196,107" fill="1" layer="-4.00" shape="569.908912,495.464368 570.300821,506.492374 597.857491,513.737059 618.617486,519.560056 636.749863,519.430192 736.860680,516.319695 831.699001,513.687849 848.546267,512.298359 867.246084,508.651403 881.725383,502.912317 915.270991,488.216736 914.354111,485.546122 737.127545,490.619214 569.908912,495.464368"/>
    <poly id="251587765" type="forest" color="140,196,107" fill="1" layer="-4.00" shape="569.513805,464.576131 569.633284,475.607087 913.863984,465.403192 914.052453,462.299725 868.164548,447.986331 853.482799,443.404278 844.390808,441.553097 791.153849,442.870875 699.422750,445.469348 622.991106,448.179692 596.272869,455.934601 569.513805,464.576131"/>
    <poly id="263473860" type="amenity" color="237,199,199" fill="1" layer="-1.00" shape="472.768262,524.042134 478.152382,518.035665 507.389863,517.419749 510.902704,520.316972 511.738463,535.050818 503.821091,535.435678 503.852775,538.359547 500.847050,538.491807 500.883801,539.089543 473.117457,539.501230 472.768262,524.042134"/>
    <poly id="306235110" type="building" color="255,230,230" fill="1" layer="-1.00" shape="393.114140,514.305431 420.369076,514.187121 421.868272,515.644049 422.343759,534.369364 419.548841,534.399668 419.542831,535.706767 421.934030,535.669764 422.637322,536.315656 422.685844,537.998768 422.188191,538.635528 417.818881,538.649673 417.817915,540.421933 411.308455,540.359596 411.312057,540.691854 409.990274,540.706187 408.633412,542.138700 405.899035,542.168350 404.713108,540.752333 400.172390,540.779418 400.152334,537.999418 393.684313,538.036329 393.654767,535.311814 391.667046,535.333370 391.206773,516.153749 393.114140,514.305431"/>
    <poly id="306235111" type="building" color="255,230,230" fill="1" layer="-1.00" shape="581.817650,524.455652 579.423073,533.497904 578.532638,533.274941 577.204295,538.273779 579.076453,538.763023 578.872961,539.540586 613.907972,548.731314 614.198678,547.620511 615.969694,548.088702 617.259369,543.245360 616.277646,542.979076 618.701196,533.814676 618.124390,533.665850 618.192021,533.388203 582.580168,524.048638 582.434936,524.615115 581.817650,524.455652"/>
    <poly id="306235112" type="building" color="255,230,230" fill="1" layer="-1.00" shape="555.703256,517.139993 574.080132,521.881083 571.629098,531.300551 571.224300,531.194170 568.986132,539.769515 551.398574,535.230338 551.834625,533.564130 551.450127,533.468606 555.703256,517.139993"/>
    <poly id="306235114" type="building" color="255,230,230" fill="1" layer="-1.00" shape="512.833861,414.492754 513.127644,428.567876 534.516230,428.125689 534.222469,414.050567 512.833861,414.492754"/>
    <poly id="306235115" type="building" color="255,230,230" fill="1" layer="-1.00" shape="511.346388,452.302089 512.163559,452.282158 512.182050,453.057317 535.002899,452.555303 534.982011,451.558639 535.577321,451.552189 535.244171,436.635675 526.678700,436.817085 526.713639,438.179124 519.530502,438.345562 519.506972,437.105242 511.012251,437.296972 511.346388,452.302089"/>
    <poly id="306235115#1" type="tourism" color="207,245,201" fill="1" layer="-2.00" shape="511.346388,452.302089 512.163559,452.282158 512.182050,453.057317 535.002899,452.555303 534.982011,451.558639 535.577321,451.552189 535.244171,436.635675 526.678700,436.817085 526.713639,438.179124 519.530502,438.345562 519.506972,437.105242 511.012251,437.296972 511.346388,452.302089"/>
    <poly id="306275227" type="building" color="255,230,230" fill="1" layer="-1.00" shape="369.265271,456.301338 391.932135,453.696207 391.953514,454.737172 393.295367,454.711545 393.356022,457.513258 394.667604,457.487958 394.740390,461.408273 395.799721,461.385709 395.884037,465.438817 396.408718,465.433128 396.436702,467.083233 373.268003,469.937485 369.265271,456.301338"/>
    <poly id="306275228" type="building" color="255,230,230" fill="1" layer="-1.00" shape="564.279541,427.592821 566.220811,442.846366 579.402482,441.219338 577.383294,424.360536 567.387297,425.698299 567.543073,427.036875 564.279541,427.592821"/>
    <poly id="306275230" type="landuse" color="194,194,130" fill="1" layer="-3.00" shape="562.550346,424.465809 535.116975,425.826333 536.006010,452.932115 545.322931,453.185632 548.940926,452.747682 565.510964,447.184988 562.550346,424.465809"/>
    <poly id="364546003" type="building" color="255,230,230" fill="1" layer="-1.00" shape="522.357796,555.859374 523.787797,545.343302 538.077536,547.270874 536.647525,557.786944 522.357796,555.859374"/>
    <poly id="364546009" type="building" color="255,230,230" fill="1" layer="-1.00" shape="483.315495,541.916157 489.439981,540.908274 508.220985,540.106615 508.350765,572.570607 498.432240,573.597445 498.090737,560.708028 477.923838,561.192427 480.230415,552.416944 483.315495,541.916157"/>
    <poly id="364546009#1" type="shop" color="237,199,255" fill="1" layer="-1.00" shape="483.315495,541.916157 489.439981,540.908274 508.220985,540.106615 508.350765,572.570607 498.432240,573.597445 498.090737,560.708028 477.923838,561.192427 480.230415,552.416944 483.315495,541.916157"/>
    <poly id="364546011" type="building" color="255,230,230" fill="1" layer="-1.00" shape="476.126842,599.293126 479.129766,602.627854 486.465126,602.548351 489.823406,599.565590 489.335277,565.698753 475.643240,565.847148 476.126842,599.293126"/>
    <poly id="405337281" type="building" color="255,230,230" fill="1" layer="-1.00" shape="399.203434,453.285061 403.965322,453.178042 403.953193,452.059441 417.654236,451.800118 417.680180,452.331511 420.677275,452.332246 420.619741,451.679353 424.139476,451.486120 424.403934,462.847807 417.623303,470.353697 402.387877,470.563200 399.203434,453.285061"/>
    <poly id="663117272" type="natural" color="140,196,107" fill="0" layer="-4.00" shape="400.899545,498.027067 159.201769,505.091821"/>
    <poly id="663117273" type="natural" color="140,196,107" fill="0" layer="-4.00" shape="121.006229,492.048690 390.597208,484.138008"/>
    <poly id="663117274" type="building" color="255,230,230" fill="1" layer="-1.00" shape="351.458444,463.195803 351.001025,460.099326 354.597875,459.572942 354.521478,459.042096 361.181247,458.072657 361.715060,461.699981 351.458444,463.195803"/>
    <poly id="663117275" type="building" color="255,230,230" fill="1" layer="-1.00" shape="346.927445,472.493887 343.538477,449.391700 362.319971,446.762208 365.973050,471.888545 346.927445,472.493887"/>
    <poly id="663117276" type="building" color="255,230,230" fill="1" layer="-1.00" shape="405.015788,443.962027 404.851849,434.426883 423.577746,434.113082 423.795352,446.738005 405.574095,447.057411 405.520289,443.956557 405.015788,443.962027"/>
    <poly id="663120598" type="building" color="255,230,230" fill="1" layer="-1.00" shape="298.924606,473.513131 298.597545,455.461871 298.447352,447.200380 307.295583,447.037911 312.451226,446.948742 312.768294,464.080754 313.313155,464.074842 313.473313,473.255580 308.428671,473.343545 298.924606,473.513131"/>
    <poly id="663508154" type="building" color="255,230,230" fill="1" layer="-1.00" shape="372.568559,414.750544 371.994508,412.065164 373.263092,411.796645 372.370124,407.619388 374.716061,407.128730 374.142251,404.465501 384.401676,402.293997 386.124062,410.372287 385.630730,410.477326 387.469629,419.063875 377.008776,421.270792 376.934062,420.894999 375.554729,421.186872 374.108973,414.423694 372.568559,414.750544"/>
    <poly id="663508181" type="building" color="255,230,230" fill="1" layer="-1.00" shape="493.358734,417.373235 493.216093,410.728845 496.222566,410.663035 496.204795,409.954328 499.836731,409.870665 499.784619,407.855296 502.115180,407.807889 502.155042,409.624013 505.918149,409.538931 505.923069,409.993016 509.181794,409.924476 509.331277,416.269725 501.411675,416.455228 501.429806,417.197161 493.358734,417.373235"/>
    <poly id="663508184" type="building" color="255,230,230" fill="1" layer="-1.00" shape="402.591712,422.355782 402.496470,417.294825 403.848416,417.269089 403.712338,410.303406 402.784174,410.324547 402.599094,400.701020 408.390186,400.582845 408.368447,399.508654 403.384440,399.607001 403.250164,392.807447 408.173634,392.709756 408.145051,391.004275 407.065534,391.027057 407.049680,390.495554 403.165366,390.570901 403.094385,386.816715 404.718765,386.788026 404.704352,386.389426 407.821942,386.333469 407.824704,386.588200 422.040287,386.312230 422.693600,420.509572 407.973552,420.791014 407.999493,422.252839 402.591712,422.355782"/>
    <poly id="663508213" type="natural" color="140,196,107" fill="0" layer="-4.00" shape="528.187771,498.796233 568.310576,497.896370"/>
    <poly id="663508215" type="natural" color="140,196,107" fill="0" layer="-4.00" shape="483.370700,502.316852 568.539967,500.441493"/>
    <poly id="663508217" type="natural" color="140,196,107" fill="0" layer="-4.00" shape="480.789431,476.436751 567.710200,474.143658"/>
    <poly id="663508218" type="natural" color="140,196,107" fill="0" layer="-4.00" shape="480.764584,474.144172 567.620510,471.453027"/>
    <poly id="663508222" type="natural" color="140,196,107" fill="0" layer="-4.00" shape="566.768287,486.869748 628.198174,485.462377"/>
    <poly id="663508226" type="natural" color="140,196,107" fill="0" layer="-4.00" shape="511.677457,485.650022 628.101403,483.048736"/>
    <poly id="664418616" type="building" color="255,230,230" fill="1" layer="-1.00" shape="581.182452,446.239893 580.616403,441.494181 580.203192,441.542963 579.570605,436.244144 579.933366,436.195909 578.867925,427.268667 593.572127,425.525476 595.147756,438.700590 592.507348,442.749973 581.182452,446.239893"/>
    <poly id="664425038" type="building" color="255,230,230" fill="1" layer="-1.00" shape="519.527897,535.896846 539.442701,535.426319 539.644161,543.775861 521.000582,544.221539 520.870911,538.773277 519.589728,538.809311 519.527897,535.896846"/>
    <poly id="664425041" type="building" color="255,230,230" fill="1" layer="-1.00" shape="541.178433,543.814622 541.101162,536.682156 546.781804,536.620615 546.859072,543.753081 541.178433,543.814622"/>
    <poly id="664425042" type="building" color="255,230,230" fill="1" layer="-1.00" shape="531.621708,521.421668 531.538881,516.571033 550.577566,516.265087 550.665065,521.547658 550.059787,521.565291 550.238625,532.484840 547.887786,532.521383 547.936989,536.131808 542.085178,536.228433 542.041972,533.171771 532.769785,533.316531 532.580254,521.411283 531.621708,521.421668"/>
    <poly id="664425043" type="building" color="255,230,230" fill="1" layer="-1.00" shape="527.079991,535.327651 526.769327,516.899622 531.471011,516.826529 531.552158,521.522111 531.875037,521.518613 532.094457,535.251169 527.079991,535.327651"/>
    <poly id="664425044" type="building" color="255,230,230" fill="1" layer="-1.00" shape="521.192696,517.248035 521.176606,516.694381 526.432759,516.570972 526.852732,534.842745 521.596587,534.966154 521.192696,517.248035"/>
    <poly id="664425045" type="building" color="255,230,230" fill="1" layer="-1.00" shape="517.068838,535.258897 516.613993,519.357886 517.955718,519.321195 519.699382,517.264215 521.192696,517.248035 521.596587,534.966154 521.609077,535.187550 517.068838,535.258897"/>
    <poly id="665079758" type="building" color="255,230,230" fill="1" layer="-1.00" shape="310.437856,587.831326 310.887918,583.739187 311.987720,583.727254 311.888470,577.370379 313.865976,577.337846 313.620662,570.539493 320.944272,570.304959 320.972743,571.068933 322.798660,571.015893 322.921088,577.649430 322.527821,577.675850 322.586470,584.941443 321.874059,587.175564 320.733898,587.187934 320.455113,589.395197 310.437856,587.831326"/>
    <poly id="665079759" type="building" color="255,230,230" fill="1" layer="-1.00" shape="309.057153,598.225054 310.535765,590.344645 320.384376,592.176183 318.409203,602.653897 311.836821,601.440328 312.333255,598.831947 309.057153,598.225054"/>
    <poly id="665079760" type="building" color="255,230,230" fill="1" layer="-1.00" shape="398.849869,644.946715 398.782487,641.524786 401.234087,641.476047 401.152772,637.699819 398.822250,637.747246 398.765196,635.277790 399.824514,635.255225 399.509943,620.205582 397.966310,620.233399 397.716838,608.395254 398.776158,608.372690 398.680309,604.186787 409.465217,603.959070 409.902285,624.722892 409.801386,624.723987 410.222840,644.978457 401.314441,645.163672 401.311559,644.897866 398.849869,644.946715"/>
    <poly id="665079764" type="building" color="255,230,230" fill="1" layer="-1.00" shape="397.173790,603.915134 397.124905,601.268364 399.294115,601.233764 399.146861,593.238080 409.387283,593.049498 409.583414,603.691951 397.173790,603.915134"/>
    <poly id="665079786" type="building" color="255,230,230" fill="1" layer="-1.00" shape="348.668882,619.073378 347.843402,607.163944 354.478475,606.715365 354.443400,606.272683 365.726917,605.496770 366.588657,617.959639 362.232465,618.250575 362.303095,619.180241 352.693431,619.838310 352.657755,619.340251 351.568767,619.418524 351.532731,618.887239 348.668882,619.073378"/>
    <poly id="665079787" type="building" color="255,230,230" fill="1" layer="-1.00" shape="348.016964,603.628636 346.926265,592.386674 363.438290,590.800836 364.528976,602.042798 348.016964,603.628636"/>
    <poly id="665079788" type="building" color="255,230,230" fill="1" layer="-1.00" shape="413.467878,616.664795 424.989818,616.473404 424.964478,615.066955 425.872448,615.046034 425.698071,604.547341 428.058988,604.510666 427.759954,587.168007 424.538637,584.167955 411.484202,584.486727 411.508706,584.885218 409.763510,584.937372 409.808421,590.940383 414.288223,590.880731 415.116675,591.901868 415.310032,605.080885 413.281961,605.102876 413.467878,616.664795"/>
    <poly id="665079795" type="building" color="255,230,230" fill="1" layer="-1.00" shape="371.269753,598.314416 370.149773,598.326564 369.521309,590.624089 370.046105,590.629474 370.048747,589.942698 378.836344,589.780928 378.824092,588.651251 387.489049,588.346821 387.581177,594.050253 390.224494,593.999433 390.371153,601.939741 387.889036,601.966660 387.921225,606.795694 385.746730,607.273417 379.573151,607.473291 379.603781,608.436620 371.482850,608.657620 371.269753,598.314416"/>
    <poly id="665079796" type="building" color="255,230,230" fill="1" layer="-1.00" shape="367.729772,614.314147 366.502398,605.355440 365.595628,605.487118 363.424715,589.549331 368.563606,588.851150 368.783304,590.499175 368.974772,590.474945 371.412101,608.647310 370.615719,608.722408 371.316971,613.832176 367.729772,614.314147"/>
    <poly id="665079799" type="building" color="255,230,230" fill="1" layer="-1.00" shape="307.623270,613.947191 308.984410,607.330785 309.975504,607.530486 310.579682,604.621868 316.405049,605.810312 316.164939,606.931651 319.896766,607.688673 318.171552,616.092356 307.623270,613.947191"/>
    <poly id="665079802" type="building" color="255,230,230" fill="1" layer="-1.00" shape="287.494159,579.783949 289.537432,570.933747 295.253148,572.245215 295.436563,571.478941 300.069771,572.536321 300.378107,571.192710 302.755491,571.742893 302.360191,573.441898 305.172523,574.087052 305.345970,573.331963 311.840530,574.812212 311.638015,575.678382 312.153924,575.794626 311.565717,578.315390 311.818687,578.379104 307.616329,596.568126 298.744518,594.548772 302.532588,578.169723 301.773800,577.989656 300.665377,582.786762 287.494159,579.783949"/>
    <poly id="665079804" type="building" color="255,230,230" fill="1" layer="-1.00" shape="323.970836,586.045157 323.039129,568.997348 331.500618,568.540019 331.525725,568.993886 334.218415,568.842830 335.852390,570.630584 336.673200,583.968946 334.775219,585.750711 323.970836,586.045157"/>
    <poly id="665079806" type="building" color="255,230,230" fill="1" layer="-1.00" shape="367.880006,579.786855 366.616833,568.458151 387.460233,566.149693 388.130849,572.156996 389.340320,572.022037 389.843612,576.557971 388.805550,576.679995 388.895639,577.542990 384.612104,578.021431 384.902429,580.599123 381.868725,580.942168 381.577319,578.264800 367.880006,579.786855"/>
    <poly id="665079807" type="building" color="255,230,230" fill="1" layer="-1.00" shape="348.510602,584.017754 344.966342,562.412587 357.014086,560.454263 359.370107,574.850399 356.186856,575.361220 357.505166,583.399586 353.405296,584.064347 353.265236,583.246200 348.510602,584.017754"/>
    <poly id="665079826" type="building" color="255,230,230" fill="1" layer="-1.00" shape="364.878353,560.756640 365.477989,565.801051 365.709817,565.776383 365.742970,566.041861 386.302895,563.647864 384.757940,550.527811 382.994241,550.735240 383.149554,552.029514 374.542591,553.031140 374.064518,548.960149 371.575184,549.252986 371.830917,551.432296 363.697701,552.384484 364.442321,558.701128 365.389695,558.591163 365.634258,560.670905 364.878353,560.756640"/>
    <poly id="665079827" type="building" color="255,230,230" fill="1" layer="-1.00" shape="361.473985,579.956029 359.090694,562.115376 364.834270,561.344176 365.448800,565.901056 365.670418,565.865423 367.459472,579.160052 361.473985,579.956029"/>
    <poly id="665079855" type="building" color="255,230,230" fill="1" layer="-1.00" shape="293.275570,541.584573 292.923618,521.240732 295.042392,521.206663 294.969216,517.253121 295.211375,517.250494 295.195517,516.718990 309.259859,516.466688 309.377490,523.587646 310.820355,523.571991 310.878990,527.115857 310.455211,527.120455 310.492701,529.645506 309.372835,529.668734 309.429187,533.002170 308.501031,533.023318 308.529147,534.684498 305.381319,534.740808 305.479604,540.078648 301.938270,540.139228 301.946322,540.881271 296.165137,540.977235 296.171267,541.542073 293.275570,541.584573"/>
    <poly id="665079858" type="building" color="255,230,230" fill="1" layer="-1.00" shape="313.237046,528.674221 312.851525,515.464056 316.775804,515.355018 316.723423,513.317497 326.377728,513.046603 326.393826,513.600257 330.065856,513.493959 330.133972,516.051908 330.618290,516.046653 330.961750,528.171770 313.237046,528.674221"/>
    <poly id="665079862" type="building" color="255,230,230" fill="1" layer="-1.00" shape="331.316571,560.877029 324.930239,561.001700 324.950783,561.965138 321.248136,562.038541 321.229514,561.252306 310.979216,561.463213 310.785899,552.016997 331.044591,551.619968 332.245202,559.969752 331.316571,560.877029"/>
    <poly id="665079865" type="building" color="255,230,230" fill="1" layer="-1.00" shape="308.507724,550.380231 308.868383,538.978526 313.895465,539.134435 313.880572,539.621966 328.063450,540.066220 327.875606,546.005299 328.158245,546.013309 328.016522,550.622699 327.653163,550.615565 327.636949,550.981268 308.507724,550.380231"/>
    <poly id="665079867" type="building" color="255,230,230" fill="1" layer="-1.00" shape="364.952984,441.106754 363.575571,431.341086 375.122655,429.731590 376.490090,439.508443 364.952984,441.106754"/>
    <poly id="665079869" type="building" color="255,230,230" fill="1" layer="-1.00" shape="347.046311,443.449838 346.228643,434.121162 362.692093,432.690933 363.462903,441.421983 358.825335,441.826734 358.790139,441.372977 357.560117,441.474931 357.502339,440.799887 351.241597,441.344089 351.391509,443.070407 347.046311,443.449838"/>
    <poly id="665079871" type="building" color="255,230,230" fill="1" layer="-1.00" shape="379.332349,448.493943 376.445050,430.703062 376.132739,430.750756 375.894783,429.280153 386.058813,428.549638 386.252324,429.644119 389.417833,429.355030 390.252302,429.999498 391.398592,436.134561 387.529786,436.708191 389.422252,447.443013 379.332349,448.493943"/>
    <poly id="665079873" type="building" color="255,230,230" fill="1" layer="-1.00" shape="362.986106,539.809222 363.698040,531.017782 376.807662,532.060786 376.967660,530.065268 386.724171,530.845582 386.572821,532.708086 387.370768,532.776968 386.677558,541.435285 385.758411,541.356640 385.625079,543.019571 376.676613,542.308031 376.774389,541.088548 373.855510,540.854368 373.721818,542.484074 364.137084,541.724060 364.289032,539.916932 362.986106,539.809222"/>
    <poly id="665079875" type="building" color="255,230,230" fill="1" layer="-1.00" shape="394.819987,576.692306 395.877387,577.422969 408.638262,576.088321 407.264990,557.394892 407.708707,557.367928 406.676792,546.889610 394.580865,548.128434 395.675250,558.783299 396.078608,558.756772 396.981884,568.538661 394.038747,568.858569 394.819987,576.692306"/>
    <poly id="665079877" type="building" color="255,230,230" fill="1" layer="-1.00" shape="409.166657,578.286828 409.064329,572.572429 408.630462,572.577134 408.323835,556.397596 426.706025,556.043210 427.081326,575.766503 426.677005,576.634859 425.918336,577.396291 425.125195,577.770417 409.166657,578.286828"/>
    <poly id="665079880" type="building" color="255,230,230" fill="1" layer="-1.00" shape="374.544508,528.086691 387.435997,527.625658 386.844186,511.205528 373.952681,511.666561 374.544508,528.086691"/>
    <poly id="665079882" type="building" color="255,230,230" fill="1" layer="-1.00" shape="360.884742,530.284013 358.759821,512.075032 373.952681,511.666561 374.544508,528.086691 374.657900,530.167855 360.884742,530.284013"/>
    <poly id="665079884" type="building" color="255,230,230" fill="1" layer="-1.00" shape="339.374444,552.050198 341.136703,552.640292 343.358891,551.907284 345.089799,552.398029 347.082442,551.900121 349.489736,552.416759 352.529571,551.708113 353.786251,552.204003 356.083395,551.868942 355.809259,535.899504 354.991252,535.841918 354.829197,526.483976 353.406152,526.466182 353.783080,524.003096 353.800976,522.862015 353.243622,520.785666 352.779349,512.405741 337.250516,512.540966 337.339187,520.714511 336.953130,522.335879 336.976199,524.462330 337.575357,526.671143 337.582686,527.346734 336.735129,527.355929 337.131313,538.760497 336.873423,540.103560 337.017689,541.309340 337.402071,542.324215 338.291191,543.355767 338.367473,545.736401 338.710772,545.754830 338.842195,550.427717 339.286152,550.422900 339.374444,552.050198"/>
    <poly id="665119366" type="building" color="255,230,230" fill="1" layer="-1.00" shape="325.791481,618.989276 325.901094,605.840198 339.525232,605.947148 339.519470,607.276399 338.954436,607.282529 338.900522,613.474916 339.193130,613.471742 339.172238,616.196805 338.768522,616.190108 338.743908,619.502269 325.791481,618.989276"/>
    <poly id="665578029" type="building" color="255,230,230" fill="1" layer="-1.00" shape="373.537478,625.039732 373.156699,617.844093 373.782033,617.815157 373.424557,610.907256 374.845912,610.769997 387.588497,609.612751 387.892633,615.324961 391.644394,615.129201 391.786011,617.952190 388.488056,618.120875 388.781262,623.755668 386.622986,623.867688 386.636078,624.144460 375.915329,624.703797 375.927701,624.914118 373.537478,625.039732"/>
    <poly id="665784577" type="building" color="255,230,230" fill="1" layer="-1.00" shape="393.661553,418.686586 392.767756,411.640506 391.266140,411.822938 390.217750,403.549037 397.392861,402.640489 397.492319,403.436923 399.407027,403.194630 400.119080,410.231603 401.259838,417.718067 393.661553,418.686586"/>
    <poly id="710680217" type="building" color="255,230,230" fill="1" layer="-1.00" shape="522.148328,588.681492 521.395319,599.278843 543.835005,600.874428 544.598001,590.265894 522.148328,588.681492"/>
    <poly id="710680218" type="building" color="255,230,230" fill="1" layer="-1.00" shape="524.328156,572.862698 523.857172,584.343118 543.765404,585.135391 544.226315,573.655082 524.328156,572.862698"/>
    <poly id="710680233" type="building" color="255,230,230" fill="1" layer="-1.00" shape="540.331924,546.714775 539.445688,557.125265 544.011018,557.507792 543.888596,559.248138 562.237361,560.467167 562.333114,559.059407 566.736884,559.432615 567.623020,549.011052 540.331924,546.714775"/>
    <poly id="710680257" type="building" color="255,230,230" fill="1" layer="-1.00" shape="567.234021,579.243192 545.761486,578.434601 545.092819,595.887426 571.501929,596.886226 571.730956,591.013170 566.794351,590.822958 567.234021,579.243192"/>
    <poly id="710680263" type="building" color="255,230,230" fill="1" layer="-1.00" shape="582.599200,592.889233 582.059219,604.525467 601.272050,605.402890 601.822257,593.777624 582.599200,592.889233"/>
    <poly id="710680264" type="building" color="255,230,230" fill="1" layer="-1.00" shape="591.033431,590.848412 591.689731,576.906996 582.825384,576.504555 582.179183,590.445863 591.033431,590.848412"/>
    <poly id="710680271" type="building" color="255,230,230" fill="1" layer="-1.00" shape="535.161569,423.422237 557.666316,422.613544 557.079154,406.603204 534.574380,407.411896 535.161569,423.422237"/>
    <poly id="710680272" type="building" color="255,230,230" fill="1" layer="-1.00" shape="577.001623,419.867588 592.622707,417.992624 590.762185,402.738203 575.151174,404.613060 577.001623,419.867588"/>
    <poly id="710680273" type="building" color="255,230,230" fill="1" layer="-1.00" shape="562.073022,422.322128 575.678135,420.657281 573.752735,405.004809 560.147487,406.658581 562.073022,422.322128"/>
    <poly id="764025760" type="residential" color="235,235,227" fill="1" layer="-3.00" shape="389.863336,545.809209 395.459012,579.786814 402.379019,579.556700 426.821019,578.748921 426.286493,544.339830 403.899538,544.826254 389.863336,545.809209"/>
    <poly id="764242785" type="building" color="255,230,230" fill="1" layer="-1.00" shape="344.732298,424.556163 368.213262,421.643097 366.821196,410.526247 343.350182,413.428129 344.732298,424.556163"/>
    <poi id="11551804512" type="shop" color="237,199,255" layer="4.00" x="484.16" y="569.19"/>
    <poi id="2601117060" type="amenity" color="237,199,199" layer="4.00" x="417.04" y="439.33"/>
    <poi id="2601117061" type="amenity" color="237,199,199" layer="4.00" x="404.01" y="467.37"/>
    <poi id="2658813024" type="amenity" color="237,199,199" layer="4.00" x="416.55" y="459.94"/>
    <poi id="2952382794" type="shop" color="237,199,255" layer="4.00" x="422.73" y="609.02"/>
    <poi id="2952382795" type="amenity" color="237,199,199" layer="4.00" x="578.55" y="432.19"/>
    <poi id="3636814895" type="building" color="255,230,230" layer="4.00" x="414.50" y="426.83"/>
    <poi id="3944644385" type="amenity" color="237,199,199" layer="4.00" x="411.94" y="519.26"/>
    <poi id="4031297504" type="amenity" color="237,199,199" layer="4.00" x="480.38" y="588.27"/>
    <poi id="4344472254" type="amenity" color="237,199,199" layer="4.00" x="536.16" y="491.92"/>
    <poi id="4865642943" type="unknown" color="51,128,255" layer="4.00" x="476.90" y="708.08"/>
    <poi id="4865642956" type="unknown" color="51,128,255" layer="4.00" x="432.88" y="706.13"/>
    <poi id="5110488991" type="amenity" color="237,199,199" layer="4.00" x="420.59" y="558.07"/>