<additional>
  <!-- Parking Area Pinggir Jalan -->
  <parkingArea id="P1" lane="edge1_0" startPos="10" endPos="30" roadsideCapacity="5"/>
  
  <!-- Car Park Terstruktur -->
  <parkingArea id="CarParkA" lane="edge2_0" startPos="240" endPos="260" width="5" length="10" angle="30">
    <space x="853" y="623"/>  <!-- Slot 1 -->
    <space x="860" y="620"/>  <!-- Slot 2 -->
  </parkingArea>
</additional>