<additional>
  <!-- Parking Area Pinggir Jalan -->
  <parkingArea id="P1" lane="1060223615#0_0" startPos="10" endPos="30" roadSide="right" capacity="10"/>
  <parkingArea id="P2" lane="1060223615#0_1" startPos="50" endPos="70" roadSide="right" capacity="8"/>
  
  <!-- Car Park Terstruktur -->
  <parkingArea id="CarParkA" lane="b_0" startPos="240" endPos="260" width="5" length="10" angle="30">
    <space x="853" y="623"/>  <!-- Slot 1 -->
    <space x="860" y="620"/>  <!-- Slot 2 -->
  </parkingArea>
</additional>