<routes>
    <!-- Passenger vehicles -->
    <vType id="passenger_sedan" vClass="passenger" length="4.3" minGap="2.5" maxSpeed="55.0" accel="2.6" decel="4.5" sigma="0.5" color="0,0,200"/>
    <vType id="passenger_hatchback" vClass="passenger" length="4.0" minGap="2.5" maxSpeed="55.0" accel="2.8" decel="4.5" sigma="0.5" color="0,0,230"/>
    <vType id="passenger_suv" vClass="passenger" length="4.7" minGap="2.5" maxSpeed="50.0" accel="2.5" decel="4.3" sigma="0.5" color="0,0,170"/>
    <!-- Truck vehicles -->
    <vType id="truck_regular" vClass="truck" length="7.5" minGap="3.0" maxSpeed="45.0" accel="1.3" decel="4.0" sigma="0.5" color="230,0,0"/>
    <vType id="truck_trailer" vClass="trailer" length="16.5" minGap="3.5" maxSpeed="40.0" accel="1.0" decel="3.5" sigma="0.5" color="200,0,0"/>
    <!-- Bus vehicles -->
    <vType id="bus_city" vClass="bus" length="12.0" minGap="2.5" maxSpeed="40.0" accel="1.2" decel="4.0" sigma="0.5" color="30,144,255"/>
    <vType id="bus_coach" vClass="coach" length="14.0" minGap="2.5" maxSpeed="45.0" accel="1.0" decel="4.0" sigma="0.5" color="0,128,255"/>
    <!-- Emergency vehicles -->
    <vType id="emergency_police" vClass="authority" length="4.5" minGap="2.5" maxSpeed="80.0" accel="2.8" decel="4.5" sigma="0.0" color="0,0,255" 
           speedFactor="1.5" guiShape="police" latAlignment="compact" jmIgnoreJunctionFOE="true" jmDriveAfterRedTime="300"/>
    <vType id="emergency_ambulance" vClass="emergency" length="6.5" minGap="2.5" maxSpeed="80.0" accel="2.6" decel="4.5" sigma="0.0" color="255,255,255" 
           speedFactor="1.5" guiShape="emergency" latAlignment="compact" jmIgnoreJunctionFOE="true" jmDriveAfterRedTime="300"/>
    <vType id="emergency_firebrigade" vClass="emergency" length="10.0" minGap="2.5" maxSpeed="70.0" accel="2.4" decel="4.5" sigma="0.0" color="255,0,0" 
           speedFactor="1.4" guiShape="firebrigade" latAlignment="compact" jmIgnoreJunctionFOE="true" jmDriveAfterRedTime="300"/>
    <!-- General vehicle types -->
    <vType id="passenger" vClass="passenger" color="1,1,0" accel="2.6" decel="4.5" length="5.0" minGap="2.5" maxSpeed="13.9"/>
    <vType id="truck" vClass="truck" color="0,1,1" accel="1.0" decel="3.0" length="12.0" minGap="3.0" maxSpeed="11.1"/>
    <vType id="bus" vClass="bus" color="1,0,1" accel="1.2" decel="3.5" length="10.0" minGap="3.0" maxSpeed="11.1"/>
    <vType id="emergency" vClass="emergency" color="1,0,0" accel="3.0" decel="6.0" length="5.0" minGap="2.5" maxSpeed="16.7"/>
</routes>