<?xml version="1.0" encoding="UTF-8"?>
<routes xmlns:xsi="http://www.w3.org/2001/XMLSchema-instance" xsi:noNamespaceSchemaLocation="http://sumo.dlr.de/xsd/routes_file.xsd">

    <!-- Hapus beberapa <vehicle> yang tidak diperlukan -->

    <vehicle id="commercial_311_tr" type="commercial" depart="0.14">
        <route edges="1740 -2346 -1237 -784 -372 -42 43 158 379 518 1267 1872 3530 4274 -4275 -3538 -1872 -1267 -518 -379 -158 -43 42 372 784 1239 1740"/>
        <stop parkingArea="parkingArea_-4275_1_36" duration="1200"/>
    </vehicle>

    <vehicle id="commercial_198_tr" type="commercial" depart="2.12">
        <route edges="-4642 -3072 -2345 2341 -2235 2231 2964 4531 -4642"/>
        <stop parkingArea="parkingArea_-2235_2_100" duration="1200"/>
    </vehicle>

    <vehicle id="commercial_454_tr" type="commercial" depart="2.29">
        <route edges="3517 -3517 -2505 -1870 -1267 -518 -379 -158 -43 42 372 784 1239 1750 -1992 -1010 1022 1498 -1498 -1022 1010 1992 -1750 -1239 -784 -372 -42 43 158 379 518 1267 1870 2505 3517"/>
        <stop parkingArea="parkingArea_1498_1_109" duration="1200"/>
    </vehicle>

    <vehicle id="commercial_223_tr" type="commercial" depart="3.01">
        <route edges="4675 -4675 -3903 -3191 -2384 -2347 -1237 -784 -372 -42 -15 3 19 51 402 752 1132 2340 3681 5626 -5626 -3681 -2340 -1132 -752 -402 -51 -19 -3 15 42 372 784 1237 2347 2384 3191 3903 4675"/>
        <stop parkingArea="parkingArea_5626_1_11" duration="1200"/>
    </vehicle>

    <vehicle id="commercial_319_tr" type="commercial" depart="7.97">
        <route edges="1133 -1133 -754 -402 -382 386 648 1016 1487 1994 2748 3557 -3557 -2748 -1994 -1487 -1016 -648 -386 382 402 754 1133"/>
        <stop parkingArea="parkingArea_3557_0_114" duration="1200"/>
    </vehicle>

    <vehicle id="commercial_22_tr" type="commercial" depart="9.72">
        <route edges="-4794 -4045 -3308 -2388 -1762 -1258 -788 -372 -26 24 52 268 400 1514 2231 2964 4531 -4642 4646 -6729 -5515 -4533 -2964 -2231 -1514 -400 -268 -52 -24 26 372 784 1237 2347 2384 3191 3903 4681 -4794"/>
        <stop parkingArea="parkingArea_4646_2_98" duration="1200"/>
    </vehicle>

    <vehicle id="commercial_178_tr" type="commercial" depart="10.12">
        <route edges="781 -400 -268 -52 -24 26 372 788 1258 1766 2397 4809 5903 7161 -7264 7264 -7161 -5903 -4809 -2397 -1766 -1258 -788 -372 -42 -15 3 19 51 412 781"/>
        <stop parkingArea="parkingArea_-7264_1_48" duration="1200"/>
    </vehicle>

    <vehicle id="commercial_391_tr" type="commercial" depart="14.41">
        <route edges="6034 -4254 -3530 -1872 -1267 -518 -379 -158 -43 42 372 784 1239 1750 -1992 -1010 1022 1498 3565 4529 5506 -5506 -4529 -3565 -1498 -1022 1010 1992 -1750 -1239 -784 -372 -42 43 158 379 518 1267 1872 3530 4254 -6034 6034"/>
        <stop parkingArea="parkingArea_-5506_1_118" duration="1200"/>
    </vehicle>

    <vehicle id="commercial_392_tr" type="commercial" depart="16.31">
        <route edges="1883 2635 -2635 -1883 1873 -1259 -518 -379 -158 -43 42 372 784 1237 2347 2384 3191 3903 -3903 -3191 -2384 -2347 -1237 -784 -372 -42 43 158 379 518 1259 -1873 1883"/>
        <stop parkingArea="parkingArea_-3903_1_55" duration="1200"/>
    </vehicle>

    <vehicle id="commercial_191_tr" type="commercial" depart="17.01">
        <route edges="-4027 -3308 3302 -3195 3199 -4673 -3784 -3083 3081 -3558 -2016 1994 2748 3557 6590 -6727 -5510 -4529 -3565 -1498 -1022 1010 1992 -1750 -1239 1237 2347 2384 3195 3919 -4027"/>
        <stop parkingArea="parkingArea_-5510_1_117" duration="1200"/>
    </vehicle>

    <vehicle id="commercial_308_tr" type="commercial" depart="18.38">
        <route edges="-1022 -648 -386 382 -382 386 648 1022 -1022"/>
        <stop parkingArea="parkingArea_-382_1_86" duration="1200"/>
    </vehicle>

    <vehicle id="commercial_0_tr" type="commercial" depart="18.39">
        <route edges="-4942 -4260 -3530 -1872 -1267 -518 -379 -158 -43 42 372 784 1239 1750 -1992 -1010 1022 1490 2858 3559 -1498 -1022 1010 1992 -1750 -1239 -784 -372 -42 43 158 379 518 1267 1872 3530 4260 4942 -4942"/>
        <stop parkingArea="parkingArea_2858_2_110" duration="1200"/>
    </vehicle>

    <vehicle id="commercial_325_tr" type="commercial" depart="19.38">
        <route edges="-5754 -4665 -3799 -3087 -2353 -2346 -1237 -784 -372 -42 43 158 379 518 1267 1872 3530 4254 -6034 6040 -6040 6034 -4254 -3530 -1872 -1267 -518 -379 -158 -43 42 372 784 1237 2346 2353 3087 3799 4665 5754 -5754"/>
        <stop parkingArea="parkingArea_6040_1_27" duration="1200"/>
    </vehicle>

    <vehicle id="commercial_132_tr" type="commercial" depart="19.77">
        <route edges="-3302 3302 -3195 3199 -4673 -3784 -3083 3087 3799 4672 5767 6919 -7022 -5781 -4672 -3799 -3087 -2353 -2346 2347 2384 3195 -3302"/>
        <stop parkingArea="parkingArea_6919_1_67" duration="1200"/>
    </vehicle>

    <vehicle id="commercial_196_tr" type="commercial" depart="20.79">
        <route edges="-5763 -4666 -3799 -3087 -2353 -2346 -1237 -784 -372 -42 43 158 379 520 894 1281 1881 2625 3543 -3543 -2625 2609 -3411 -1263 -518 -379 -158 -43 42 372 784 1237 2346 2353 3087 3799 4666 5763 -5763"/>
        <stop parkingArea="parkingArea_3543_1_4" duration="1200"/>
    </vehicle>

    <vehicle id="commercial_567_tr" type="commercial" depart="20.99">
        <route edges="-2227 -1514 -400 -268 -52 -24 26 -42 43 158 379 518 1267 1872 3530 4260 4948 6152 -6036 -4817 -4149 -3518 -1872 -1267 -518 -379 -158 -43 42 372 784 1239 1750 -1992 -1010 1022 1494 2124 -2227"/>
        <stop parkingArea="parkingArea_-6036_1_28" duration="1200"/>
    </vehicle>

    <vehicle id="commercial_118_tr" type="commercial" depart="21.31">
        <route edges="4675 -4675 -3903 -3191 -2384 -2347 -1237 -784 -372 -26 24 52 268 400 1514 2231 2964 4533 5515 -5514 -4531 -2964 -2231 -1514 -400 -268 -52 -24 26 372 784 1237 2347 2384 3191 3903 4675"/>
        <stop parkingArea="parkingArea_-5514_2_104" duration="1200"/>
    </vehicle>

    <vehicle id="commercial_57_tr" type="commercial" depart="21.71">
        <route edges="-6036 -4817 -4149 -3518 -1872 -1267 -518 -379 -158 -43 -15 3 19 51 412 782 1634 -1634 -780 -402 -51 -19 -3 15 43 158 379 518 1267 1872 3530 4260 4948 6152 -6036"/>
        <stop parkingArea="parkingArea_-1634_1_95" duration="1200"/>
    </vehicle>

    <vehicle id="commercial_216_tr" type="commercial" depart="23.3">
        <route edges="-4808 -4045 -3308 -2388 -1762 -1258 -788 -372 -42 43 158 379 518 1259 -1873 1873 -1259 -518 -379 -158 -43 42 372 788 1258 1762 2386 4022 4045 4808 -4808"/>
        <stop parkingArea="parkingArea_-1873_1_12" duration="1200"/>
    </vehicle>

    <vehicle id="commercial_272_tr" type="commercial" depart="23.72">
        <route edges="-7047 -5791 -4675 -3903 -3191 -2384 -2347 -1237 -784 -372 -42 43 -43 42 372 784 1237 2347 2384 3191 3903 4675 5787 7046 -7047"/>
        <stop parkingArea="parkingArea_-43_1_75" duration="1200"/>
    </vehicle>

    <vehicle id="commercial_321_tr" type="commercial" depart="24.0">
        <route edges="4507 5398 6598 -6598 -5398 -4507 -3565 -1498 -1022 1010 1992 -1750 -1239 1247 -1248 1258 1766 2397 4809 5903 7161 -7264 -5931 -4808 4794 -4681 -3903 -3191 -2384 -2347 2346 2349 -2739 -1991 -1010 1022 1498 3565 4507"/>
        <stop parkingArea="parkingArea_-7264_1_48" duration="1200"/>
    </vehicle>

    <vehicle id="commercial_556_tr" type="commercial" depart="24.15">
        <route edges="518 -518 -379 -158 -43 42 -26 24 52 268 400 1514 2231 2964 4533 5517 -5517 -4533 -2964 -2231 -1514 -400 -268 -52 -24 26 -42 43 158 379 518"/>
        <stop parkingArea="parkingArea_5517_2_105" duration="1200"/>
    </vehicle>

    <vehicle id="commercial_225_tr" type="commercial" depart="25.58">
        <route edges="780 -780 -402 -382 386 648 1016 1487 1994 2748 -2748 -1994 -1487 -1016 -648 -386 382 402 780"/>
        <stop parkingArea="parkingArea_-2748_2_112" duration="1200"/>
    </vehicle>

    <vehicle id="commercial_261_tr" type="commercial" depart="25.73">
        <route edges="3517 -3517 -2505 -1870 -1267 -518 -379 -158 -43 42 372 784 1237 2346 2353 3087 3799 4672 -4672 -3799 -3087 -2353 -2346 -1237 -784 -372 -42 43 158 379 518 1267 1870 2505 3517"/>
        <stop parkingArea="parkingArea_-4672_2_65" duration="1200"/>
    </vehicle>

    <vehicle id="commercial_250_tr" type="commercial" depart="26.98">
        <route edges="-6586 6586 -4525 -3565 -1498 -1022 1010 1992 -1750 -1239 -784 -372 -42 43 158 379 518 1259 -1873 1873 -1259 -518 -379 -158 -43 42 372 784 1239 1750 -1992 -1010 1022 1498 3565 4525 -6586"/>
        <stop parkingArea="parkingArea_-1873_1_12" duration="1200"/>
    </vehicle>

    <vehicle id="commercial_379_tr" type="commercial" depart="27.58">
        <route edges="1239 -1239 -784 -372 -42 43 158 379 518 1267 1870 2505 3517 4922 6049 -6049 -4922 -3517 -2505 -1870 -1267 -518 -379 -158 -43 42 372 784 1239"/>
        <stop parkingArea="parkingArea_6049_1_23" duration="1200"/>
    </vehicle>

    <vehicle id="commercial_333_tr" type="commercial" depart="29.19">
        <route edges="-6880 -5650 -3681 -2340 -1132 -752 -402 -382 -268 -52 -24 26 372 788 1258 1766 2397 4809 5903 7161 -7264 7264 -7161 -5903 -4809 -2397 -1766 -1258 -788 -372 -26 24 52 268 382 402 752 1132 2340 3681 5650 6880 -6880"/>
        <stop parkingArea="parkingArea_-7264_1_48" duration="1200"/>
    </vehicle>

    <vehicle id="commercial_58_tr" type="commercial" depart="29.68">
        <route edges="-1740 -1239 -784 -372 -42 43 158 379 518 1267 1870 2505 3517 4922 6049 -6049 -4922 -3517 -2505 -1870 -1267 -518 -379 -158 -43 42 372 784 1237 2346 -1740"/>
        <stop parkingArea="parkingArea_6049_1_23" duration="1200"/>
    </vehicle>

    <vehicle id="commercial_365_tr" type="commercial" depart="29.79">
        <route edges="-3554 -2635 -1883 1873 -1259 -518 -379 -158 -43 42 372 784 1237 2346 2353 3087 3797 4664 -4664 -3797 -3087 -2353 -2346 -1237 -784 -372 -42 43 158 379 518 1259 -1873 1883 2635 3554 4403 5272 -5272 -4403 -3554"/>
        <stop parkingArea="parkingArea_4664_1_71" duration="1200"/>
    </vehicle>

    <vehicle id="commercial_291_tr" type="commercial" depart="31.57">
        <route edges="3565 -3565 -1498 -1022 1010 1992 -1750 -1239 -784 -372 -42 43 158 379 520 894 1281 1881 2625 3541 4297 5162 -5162 -4297 -3541 -2625 2609 -3411 -1263 -518 -379 -158 -43 42 372 784 1239 1750 -1992 -1010 1022 1498 3565"/>
        <stop parkingArea="parkingArea_5162_1_2" duration="1200"/>
    </vehicle>

    <vehicle id="commercial_451_tr" type="commercial" depart="31.6">
        <route edges="-2503 -1870 -1267 -518 -379 -158 -43 42 372 784 1237 2346 2353 3087 3797 4652 -4652 -3797 -3087 -2353 -2346 -1237 -784 -372 -42 43 158 379 518 1267 1872 3518 -2503"/>
        <stop parkingArea="parkingArea_-4652_1_70" duration="1200"/>
    </vehicle>

    <vehicle id="commercial_598_tr" type="commercial" depart="34.13">
        <route edges="-4811 -4149 -3518 -1872 -1267 -518 -379 -158 -43 42 372 784 1239 1750 -1992 -1010 1022 1498 -1498 -1022 1010 1992 -1750 -1239 -784 -372 -42 43 158 379 518 1267 1870 2505 3517 4920 -4811"/>
        <stop parkingArea="parkingArea_1498_1_109" duration="1200"/>
    </vehicle>

    <vehicle id="commercial_157_tr" type="commercial" depart="34.42">
        <route edges="2372 -3784 3794 4650 5754 -5754 -4650 -3794 3784 -2372 2372"/>
        <stop parkingArea="parkingArea_5754_1_64" duration="1200"/>
    </vehicle>

    <vehicle id="commercial_26_tr" type="commercial" depart="35.28">
        <route edges="-5156 -4297 -3541 -2625 2609 -3411 -1263 -518 -379 -158 -43 42 372 784 1237 2347 2372 -3784 3794 4650 -4665 -3799 -3087 -2353 -2346 -1237 -784 -372 -42 43 158 379 520 894 1281 1881 2625 3541 4297 5156 -5156"/>
        <stop parkingArea="parkingArea_4650_1_63" duration="1200"/>
    </vehicle>

    <vehicle id="commercial_490_tr" type="commercial" depart="36.11">
        <route edges="5760 -5760 -4652 -3797 -3087 -2353 -2346 -1237 -784 -372 -42 43 158 379 518 1267 1872 3518 -3518 -1872 -1267 -518 -379 -158 -43 42 372 784 1237 2346 2353 3087 3797 4652 5760"/>
        <stop parkingArea="parkingArea_3518_1_33" duration="1200"/>
    </vehicle>

    <vehicle id="commercial_116_tr" type="commercial" depart="36.71">
        <route edges="-4666 -3799 -3087 -2353 -1740 1750 -1992 -1010 -648 -386 382 402 752 1130 -1133 -754 -402 -382 386 648 1016 1487 2016 3558 -3081 3087 3799 4666 -4666"/>
        <stop parkingArea="parkingArea_-754_1_18" duration="1200"/>
    </vehicle>

    <vehicle id="commercial_520_tr" type="commercial" depart="37.42">
        <route edges="3518 -3518 -1872 -1267 -518 -379 -158 -43 -15 3 19 51 402 752 1130 -1130 -752 -402 -51 -19 -3 15 43 158 379 518 1267 1872 3518"/>
        <stop parkingArea="parkingArea_-1130_1_20" duration="1200"/>
    </vehicle>

    <vehicle id="commercial_506_tr" type="commercial" depart="37.7">
        <route edges="5156 -5156 -4297 -3541 -2625 -1881 1873 -1873 1881 2625 3541 4297 5156"/>
        <stop parkingArea="parkingArea_1873_1_13" duration="1200"/>
    </vehicle>

    <vehicle id="commercial_112_tr" type="commercial" depart="38.37">
        <route edges="-6727 -5510 -4529 -3565 -1498 -1022 1010 1992 -1750 -1239 -784 -372 -42 43 158 379 518 1267 1872 3518 -2503 -1870 -1267 -518 -379 -158 -43 42 372 784 1237 2346 2349 -2739 2738 -2016 1994 2748 3557 6590 -6727"/>
        <stop parkingArea="parkingArea_-2503_2_34" duration="1200"/>
    </vehicle>

    <vehicle id="commercial_497_tr" type="commercial" depart="38.43">
        <route edges="-6914 -5762 -4652 -3797 -3087 -2353 -2346 -1237 -784 -372 -42 43 -29 41 -373 -158 -43 42 372 784 1239 1740 2353 3087 3799 4666 5763 6914 -6914"/>
        <stop parkingArea="parkingArea_41_1_77" duration="1200"/>
    </vehicle>

    <vehicle id="commercial_491_tr" type="commercial" depart="39.42">
        <route edges="-4922 -3517 -2505 -1870 -1267 1259 -1873 1873 -1259 1267 1870 2505 3517 4922 -4922"/>
        <stop parkingArea="parkingArea_1873_1_13" duration="1200"/>
    </vehicle>

    <vehicle id="commercial_527_tr" type="commercial" depart="39.7">
        <route edges="3080 -3080 -2354 -1750 -1239 -784 -372 -42 43 158 379 518 1259 -1873 1883 2635 3554 4403 5272 -5272 -4403 -3554 -2635 -1883 1873 -1259 -518 -379 -158 -43 42 372 784 1237 2346 2349 3080"/>
        <stop parkingArea="parkingArea_3554_1_7" duration="1200"/>
    </vehicle>

    <vehicle id="commercial_235_tr" type="commercial" depart="39.93">
        <route edges="4811 -4920 -3517 -2505 -1870 -1267 -518 -379 -158 -43 42 372 784 1237 2347 2384 3191 -3191 -2384 -2347 -1237 -784 -372 -42 43 158 379 518 1267 1872 3518 4149 4811"/>
        <stop parkingArea="parkingArea_-3191_1_56" duration="1200"/>
    </vehicle>

    <vehicle id="commercial_385_tr" type="commercial" depart="40.04">
        <route edges="-7026 -5781 -4672 -3799 -3087 3081 -3558 -2016 1994 2748 3557 -3557 -2748 -1994 2016 3558 -3081 3087 3799 4672 5781 7026 -7026"/>
        <stop parkingArea="parkingArea_3557_0_114" duration="1200"/>
    </vehicle>

    <vehicle id="commercial_405_tr" type="commercial" depart="41.14">
        <route edges="3905 4682 -4673 -3784 -3083 3081 -3558 -2016 1994 2740 -1490 1494 2124 -2227 2235 -2235 -1514 -400 -268 -52 -24 26 372 784 1237 2347 2384 3191 3905"/>
        <stop parkingArea="parkingArea_-2235_2_100" duration="1200"/>
    </vehicle>

    <vehicle id="commercial_414_tr" type="commercial" depart="41.15">
        <route edges="-4811 -4149 -3518 -1872 -1267 -518 -379 379 518 1267 1870 2505 3517 4920 -4811"/>
        <stop parkingArea="parkingArea_379_0_74" duration="1200"/>
    </vehicle>

    <vehicle id="commercial_65_tr" type="commercial" depart="41.34">
        <route edges="-4403 -3554 -2635 -1883 1873 -1259 -518 -379 -158 -43 -15 3 19 51 402 752 1132 2338 -1524 -1133 -754 -402 -51 -19 -3 15 43 158 379 518 1259 -1873 1883 2635 3554 4403 5272 -5272 -4403"/>
        <stop parkingArea="parkingArea_2338_1_17" duration="1200"/>
    </vehicle>

    <vehicle id="commercial_507_tr" type="commercial" depart="41.36">
        <route edges="-4793 -4045 -3308 -2388 -1762 -1258 -788 -372 -42 -15 3 19 51 402 752 1132 2340 -2340 -1132 -752 -402 -51 -19 -3 15 42 372 788 1258 1762 2386 4022 4045 4793 -4793"/>
        <stop parkingArea="parkingArea_-2340_1_9" duration="1200"/>
    </vehicle>

    <vehicle id="commercial_32_tr" type="commercial" depart="42.05">
        <route edges="-3072 -2345 -1634 -780 -402 -51 -19 -3 5 -5 3 19 51 412 782 1634 2345 3072 -3072"/>
        <stop parkingArea="parkingArea_-5_0_79" duration="1200"/>
    </vehicle>

    <vehicle id="commercial_146_tr" type="commercial" depart="43.88">
        <route edges="1991 2738 -2016 1994 2740 2858 3559 -1498 -1022 1010 1991"/>
        <stop parkingArea="parkingArea_2858_2_110" duration="1200"/>
    </vehicle>

    <vehicle id="commercial_576_tr" type="commercial" depart="46.21">
        <route edges="400 -400 -268 -52 -24 26 -42 43 158 379 -379 -158 -43 42 -26 24 52 268 400"/>
        <stop parkingArea="parkingArea_379_0_74" duration="1200"/>
    </vehicle>

    <vehicle id="commercial_19_tr" type="commercial" depart="46.67">
        <route edges="-5910 -4793 -4045 -3308 -2388 -1762 -1258 -788 -372 -26 24 52 268 400 1514 2231 2962 -2965 -2235 -1514 -400 -268 -52 -24 26 372 788 1258 1762 2386 4022 4045 4808 5911 -5910"/>
        <stop parkingArea="parkingArea_-2965_1_101" duration="1200"/>
    </vehicle>

    <vehicle id="commercial_337_tr" type="commercial" depart="47.07">
        <route edges="5781 -5781 -4672 -3799 -3087 -2353 -1740 1750 -1992 -1010 -648 -386 382 402 752 1132 2340 3671 4539 -4539 -3671 -2340 -1132 -752 -402 -382 386 648 1016 1487 2016 3558 -3081 3087 3799 4672 5781"/>
        <stop parkingArea="parkingArea_4539_1_8" duration="1200"/>
    </vehicle>

    <vehicle id="commercial_595_tr" type="commercial" depart="47.4">
        <route edges="-1522 -1130 -752 -402 -382 386 648 1016 1489 -1489 -1016 -648 -386 382 402 752 1130 1522 -1522"/>
        <stop parkingArea="parkingArea_-1489_2_111" duration="1200"/>
    </vehicle>

    <vehicle id="commercial_384_tr" type="commercial" depart="48.17">
        <route edges="2739 -2349 -2346 2347 2372 -2372 -2347 2346 2349 -2739 2739"/>
        <stop parkingArea="parkingArea_2372_1_59" duration="1200"/>
    </vehicle>

    <vehicle id="commercial_35_tr" type="commercial" depart="48.23">
        <route edges="24 -21 23 -27 29 158 379 -379 -158 -43 42 -26 24"/>
        <stop parkingArea="parkingArea_379_0_74" duration="1200"/>
    </vehicle>

    <vehicle id="commercial_453_tr" type="commercial" depart="48.55">
        <route edges="906 -1259 1267 1872 3530 4254 -6034 6036 -6152 -4948 -4260 -3530 -1872 -1267 1259 -906 906"/>
        <stop parkingArea="parkingArea_-6152_1_29" duration="1200"/>
    </vehicle>

    <vehicle id="commercial_122_tr" type="commercial" depart="49.17">
        <route edges="-21 19 51 402 752 -752 -402 -51 -19 21 -21"/>
        <stop parkingArea="parkingArea_-752_1_84" duration="1200"/>
    </vehicle>

    <vehicle id="commercial_148_tr" type="commercial" depart="49.32">
        <route edges="-752 -402 -382 -268 -52 -24 26 372 784 1237 2347 2384 3191 3903 4675 5799 -5904 -4793 -4045 -3308 -2388 -1762 -1258 -788 -372 -26 24 52 268 382 402 752 -752"/>
        <stop parkingArea="parkingArea_-5904_2_46" duration="1200"/>
    </vehicle>

    <vehicle id="commercial_502_tr" type="commercial" depart="50.28">
        <route edges="3797 -3797 -3087 -2353 -2346 -1237 -784 -372 -42 43 -29 41 -373 -158 -43 42 372 784 1239 1740 2353 3087 3797"/>
        <stop parkingArea="parkingArea_41_1_77" duration="1200"/>
    </vehicle>

    <vehicle id="commercial_193_tr" type="commercial" depart="52.07">
        <route edges="-4811 -4149 -3518 -1872 -1267 -518 -379 -158 -43 42 372 784 1237 2346 2349 -2739 2738 -2016 1994 2748 3557 6586 -4525 -3565 -1498 -1022 1010 1992 -1750 -1239 -784 -372 -42 43 158 379 518 1267 1870 2505 3517 4920 -4811"/>
        <stop parkingArea="parkingArea_3557_0_114" duration="1200"/>
    </vehicle>

    <vehicle id="commercial_529_tr" type="commercial" depart="52.23">
        <route edges="-1872 -1267 -518 -379 -158 -43 42 372 784 1239 1750 -1992 -1010 1022 1498 -3559 -3555 -2748 -1994 2016 3558 -3080 -2349 -2346 -1237 -784 -372 -42 43 158 379 518 1267 1872 -1872"/>
        <stop parkingArea="parkingArea_-2748_2_112" duration="1200"/>
    </vehicle>

    <vehicle id="commercial_186_tr" type="commercial" depart="54.68">
        <route edges="2349 -2349 -2346 -1237 -784 -372 -42 43 158 379 518 1267 1872 3538 4291 -6255 6255 -4291 -3538 -1872 -1267 -518 -379 -158 -43 42 372 784 1237 2346 2349"/>
        <stop parkingArea="parkingArea_-6255_1_38" duration="1200"/>
    </vehicle>

    <vehicle id="commercial_190_tr" type="commercial" depart="55.5">
        <route edges="-2124 -1494 -1022 1010 1991 2738 -2738 -1991 -1010 1022 1494 2124 -2227 2227 -2124"/>
        <stop parkingArea="parkingArea_-2738_1_61" duration="1200"/>
    </vehicle>

    <vehicle id="commercial_467_tr" type="commercial" depart="56.61">
        <route edges="7046 -7047 -5791 -4675 -3903 -3191 -2384 -2347 -1237 -784 -372 -26 -5 15 42 372 784 1237 2347 2384 3191 3903 4675 5787 7046"/>
        <stop parkingArea="parkingArea_-5_0_79" duration="1200"/>
    </vehicle>

    <vehicle id="commercial_437_tr" type="commercial" depart="56.74">
        <route edges="-4793 -4045 -3308 -2388 -1762 -1258 -788 -372 -42 43 158 379 518 1259 -906 -520 -379 -158 -43 42 372 788 1258 1762 2386 4022 4045 4793 -4793"/>
        <stop parkingArea="parkingArea_-906_1_14" duration="1200"/>
    </vehicle>

    <vehicle id="commercial_170_tr" type="commercial" depart="57.13">
        <route edges="-1740 1750 -1992 -1010 1022 1498 -1498 -1022 1010 1992 -1750 1740 -1740"/>
        <stop parkingArea="parkingArea_1498_1_109" duration="1200"/>
    </vehicle>

    <vehicle id="commercial_580_tr" type="commercial" depart="57.62">
        <route edges="4808 -4808 -4045 -3308 -2388 -1762 -1258 -788 -372 -42 43 158 379 518 1267 -1267 -518 -379 -158 -43 42 372 788 1258 1762 2386 4022 4045 4808"/>
        <stop parkingArea="parkingArea_-1267_1_16" duration="1200"/>
    </vehicle>

    <vehicle id="commercial_351_tr" type="commercial" depart="57.85">
        <route edges="268 -268 -52 -24 -5 5 24 52 268"/>
        <stop parkingArea="parkingArea_-5_0_79" duration="1200"/>
    </vehicle>

    <vehicle id="commercial_501_tr" type="commercial" depart="58.76">
        <route edges="-6729 -5515 -4533 -2964 -2231 -1514 -400 -268 -52 -24 26 -42 43 158 379 520 894 1281 1881 2625 -2625 2609 -3411 -1263 -518 -379 -158 -43 -15 3 19 51 412 782 1634 2345 3072 4646 -6729"/>
        <stop parkingArea="parkingArea_2625_1_5" duration="1200"/>
    </vehicle>

    <vehicle id="commercial_393_tr" type="commercial" depart="58.99">
        <route edges="-6914 -5762 -4652 -3797 -3087 -2353 -2346 -1237 -784 -372 -42 43 158 379 520 894 1281 1881 2625 3541 4297 -4297 -3541 -2625 2609 -3411 -1263 -518 -379 -158 -43 42 372 784 1237 2346 2353 3087 3799 4666 5763 6914 -6914"/>
        <stop parkingArea="parkingArea_4297_1_3" duration="1200"/>
    </vehicle>

    <vehicle id="commercial_539_tr" type="commercial" depart="59.44">
        <route edges="-373 -158 -43 42 372 784 1237 2347 2384 3191 3903 4675 5799 -5904 -4793 -4045 -3308 -2388 -1762 -1258 -788 -372 -42 43 158 373 -373"/>
        <stop parkingArea="parkingArea_-5904_2_46" duration="1200"/>
    </vehicle>

    <vehicle id="commercial_533_tr" type="commercial" depart="60.09">
        <route edges="1489 -1490 -1022 1010 1992 -1750 1750 -1992 -1010 1016 1489"/>
        <stop parkingArea="parkingArea_1750_0_91" duration="1200"/>
    </vehicle>

    <vehicle id="commercial_110_tr" type="commercial" depart="60.21">
        <route edges="4642 -4531 -2964 -2231 -1514 -400 -268 -52 -24 26 -42 43 158 379 -379 -158 -43 -15 3 19 51 412 782 1634 2345 3072 4642"/>
        <stop parkingArea="parkingArea_379_0_74" duration="1200"/>
    </vehicle>

    <vehicle id="commercial_109_tr" type="commercial" depart="60.4">
        <route edges="2962 -2965 -2235 2231 2962"/>
        <stop parkingArea="parkingArea_-2235_2_100" duration="1200"/>
    </vehicle>

    <vehicle id="commercial_138_tr" type="commercial" depart="62.32">
        <route edges="5911 -5910 -4793 -4045 -4022 -2386 -1762 -1258 -788 -372 -26 24 52 268 400 1514 2235 -2341 2345 3068 -2962 -2231 -1514 -400 -268 -52 -24 26 372 788 1258 1762 2386 4022 4045 4808 5911"/>
        <stop parkingArea="parkingArea_2345_2_96" duration="1200"/>
    </vehicle>

    <vehicle id="commercial_51_tr" type="commercial" depart="62.57">
        <route edges="1263 3411 -3411 -1263 1267 1872 3518 -3518 -1872 -1267 1263"/>
        <stop parkingArea="parkingArea_3518_1_33" duration="1200"/>
    </vehicle>

    <vehicle id="commercial_346_tr" type="commercial" depart="63.34">
        <route edges="6034 -4254 -3530 -1872 -1267 -518 -379 -158 -43 42 372 784 1237 2347 2384 3191 3903 4675 5799 -5904 -4793 -4045 -3308 -2388 -1762 -1258 -788 -372 -42 43 158 379 518 1267 1872 3530 4254 -6034 6034"/>
        <stop parkingArea="parkingArea_-5904_2_46" duration="1200"/>
    </vehicle>

    <vehicle id="commercial_212_tr" type="commercial" depart="64.76">
        <route edges="-3541 -2625 2609 -3411 -1263 -518 -379 -158 -43 42 372 784 1237 2346 2353 3087 3799 4666 5763 -5763 -4666 -3799 -3087 -2353 -2346 -1237 -784 -372 -42 43 158 379 520 894 1281 1881 2625 3541 4297 -4297 -3541"/>
        <stop parkingArea="parkingArea_5763_2_72" duration="1200"/>
    </vehicle>

    <vehicle id="commercial_144_tr" type="commercial" depart="65.0">
        <route edges="4665 -4665 -3799 -3087 -2353 -2346 -1237 -784 -372 -26 -5 15 42 372 784 1237 2346 2353 3087 3799 4665"/>
        <stop parkingArea="parkingArea_-5_0_79" duration="1200"/>
    </vehicle>

    <vehicle id="commercial_200_tr" type="commercial" depart="65.47">
        <route edges="1873 -1259 -518 -379 -158 -43 -15 3 19 51 412 782 1634 2345 -2345 -1634 -780 -402 -51 -19 -3 15 43 158 379 520 894 1281 1873"/>
        <stop parkingArea="parkingArea_2345_2_96" duration="1200"/>
    </vehicle>

    <vehicle id="commercial_267_tr" type="commercial" depart="65.8">
        <route edges="5398 6598 -6598 -5398 -4507 -3565 -1498 -1022 1010 1992 -1750 -1239 1237 2347 2384 3191 3903 4675 5791 7047 -7046 -5787 -4675 -3903 -3191 -2384 -2347 2346 2349 -2739 -1991 -1010 1022 1498 3565 4507 5398"/>
        <stop parkingArea="parkingArea_7047_2_42" duration="1200"/>
    </vehicle>

    <vehicle id="commercial_81_tr" type="commercial" depart="68.09">
        <route edges="-5787 -4675 -3903 -3191 -2384 -1754 -1248 1248 1754 2384 3191 3903 4675 5787 -5787"/>
        <stop parkingArea="parkingArea_-1248_2_57" duration="1200"/>
    </vehicle>

    <vehicle id="commercial_564_tr" type="commercial" depart="69.02">
        <route edges="2372 -2372 -1754 -1248 1248 1754 2372"/>
        <stop parkingArea="parkingArea_-1248_2_57" duration="1200"/>
    </vehicle>

    <vehicle id="commercial_327_tr" type="commercial" depart="70.18">
        <route edges="1133 -1133 -754 -402 -382 386 648 1016 1487 2016 3558 -3081 -2353 -1740 1750 -1992 -1010 -648 -386 382 402 754 1133"/>
        <stop parkingArea="parkingArea_-2353_2_60" duration="1200"/>
    </vehicle>

    <vehicle id="commercial_59_tr" type="commercial" depart="71.8">
        <route edges="5 26 372 784 1237 2347 2384 3191 3903 4681 -4794 -4045 -3308 -2388 -1762 -1258 -788 -372 -42 -15 5"/>
        <stop parkingArea="parkingArea_-4794_2_45" duration="1200"/>
    </vehicle>

    <vehicle id="commercial_233_tr" type="commercial" depart="72.78">
        <route edges="-6892 -4646 -3072 -2345 -1634 1634 2345 3072 4646 6892 -6892"/>
        <stop parkingArea="parkingArea_-1634_1_95" duration="1200"/>
    </vehicle>

    <vehicle id="commercial_496_tr" type="commercial" depart="74.56">
        <route edges="-6728 -5510 -4529 -3565 -1498 -1022 1010 1992 -1750 -1239 1237 2347 2384 3191 3903 4675 5787 -5787 -4675 -3903 -3191 -2384 -2347 2346 -1740 1750 -1992 -1010 1022 1498 3565 4525 -6728"/>
        <stop parkingArea="parkingArea_-5787_1_44" duration="1200"/>
    </vehicle>

    <vehicle id="commercial_105_tr" type="commercial" depart="76.84">
        <route edges="4687 -4794 4794 -4687 4687"/>
        <stop parkingArea="parkingArea_-4794_2_45" duration="1200"/>
    </vehicle>

    <vehicle id="commercial_407_tr" type="commercial" depart="77.11">
        <route edges="-6377 -5156 -4297 -3541 -2625 -1881 1873 -1259 1267 1872 3530 4254 -6034 6036 -6152 -4948 -4260 -3530 -1872 -1267 1259 -1873 1881 2625 3541 4297 5156 6377 -6377"/>
        <stop parkingArea="parkingArea_-6152_1_29" duration="1200"/>
    </vehicle>

    <vehicle id="commercial_4_tr" type="commercial" depart="77.12">
        <route edges="-1133 -754 -402 -51 -19 -3 15 43 158 379 520 894 1281 1881 2625 3543 -3543 -2625 2609 -3411 -1263 -518 -379 -158 -43 -15 3 19 51 402 752 1130 -1133"/>
        <stop parkingArea="parkingArea_3543_1_4" duration="1200"/>
    </vehicle>

    <vehicle id="commercial_142_tr" type="commercial" depart="78.38">
        <route edges="-2341 2341 -2235 2227 -2124 -1494 1490 -2740 2748 3557 -3557 -2748 2740 -1490 1494 2124 -2227 2235 -2341"/>
        <stop parkingArea="parkingArea_3557_0_114" duration="1200"/>
    </vehicle>

    <vehicle id="commercial_524_tr" type="commercial" depart="79.0">
        <route edges="1883 2635 -2635 -1883 1873 -1259 -518 -379 -158 -43 42 372 -372 -42 43 158 379 518 1259 -1873 1883"/>
        <stop parkingArea="parkingArea_-372_1_76" duration="1200"/>
    </vehicle>

    <vehicle id="commercial_169_tr" type="commercial" depart="79.49">
        <route edges="-2962 -2231 2227 -2124 -1494 1498 3565 4529 5510 6727 -6590 -3557 -2748 2740 -1490 1494 2124 -2227 2235 2965 -2962"/>
        <stop parkingArea="parkingArea_-6590_1_113" duration="1200"/>
    </vehicle>

    <vehicle id="commercial_470_tr" type="commercial" depart="79.76">