<?xml version="1.0" encoding="UTF-8"?>
<routes xmlns:xsi="http://www.w3.org/2001/XMLSchema-instance" xsi:noNamespaceSchemaLocation="http://sumo.dlr.de/xsd/routes_file.xsd">

    <vehicle id="passenger_591_tr" type="passenger" depart="0.48">
        <route edges="382 -382 386 648 1016 1487 2016 3558 -3081 3087 3797 4652 -4652 -3797 -3087 -2353 -1740 1750 -1992 -1010 -648 -386 382"/>
        <stop parkingArea="parkingArea_-4652_1_70" duration="1200"/>
    </vehicle>

    <vehicle id="passenger_572_tr" type="passenger" depart="0.55">
        <route edges="4531 -4531 -2964 -2231 -1514 -400 -268 -52 -24 26 372 784 1237 2347 2372 -3784 -3083 3081 -3558 -2016 -1487 -1016 -648 -386 400 1514 2231 2964 4531"/>
        <stop parkingArea="parkingArea_2372_1_59" duration="1200"/>
    </vehicle>

    <vehicle id="passenger_129_tr" type="passenger" depart="1.51">
        <route edges="-2397 -1766 -1258 1248 1754 2384 3191 3903 -3903 -3191 3195 -3302 -2388 2396 -2397"/>
        <stop parkingArea="parkingArea_-3903_1_55" duration="1200"/>
    </vehicle>

    <vehicle id="passenger_752_tr" type="passenger" depart="3.01">
        <route edges="4673 -3199 3195 -3302 3302 -3195 3199 -4673 4673"/>
        <stop parkingArea="parkingArea_-3302_1_54" duration="1200"/>
    </vehicle>

    <vehicle id="passenger_347_tr" type="passenger" depart="3.74">
        <route edges="2858 -2858 -1489 1487 2016 3558 -3081 3087 -3087 3081 -3558 -2016 1994 2740 2858"/>
        <stop parkingArea="parkingArea_3087_2_62" duration="1200"/>
    </vehicle>

    <vehicle id="passenger_266_tr" type="passenger" depart="4.13">
        <route edges="-4809 -2397 -1766 -1258 -788 -372 -42 43 158 379 518 1267 1872 3530 4254 -6034 6036 -6152 -4948 -4260 -3530 -1872 -1267 -518 -379 -158 -43 42 372 788 1258 1766 2397 4809 -4809"/>
        <stop parkingArea="parkingArea_-6152_1_29" duration="1200"/>
    </vehicle>

    <vehicle id="passenger_751_tr" type="passenger" depart="5.57">
        <route edges="-4525 -3565 -1498 -1022 1010 1992 -1750 -1239 -784 -372 372 784 1239 1750 -1992 -1010 1022 1498 3565 4525 -4525"/>
        <stop parkingArea="parkingArea_-372_1_76" duration="1200"/>
    </vehicle>

    <vehicle id="passenger_595_tr" type="passenger" depart="6.04">
        <route edges="-1873 1873 -1259 -518 -379 -158 -43 42 372 784 1239 1750 -1992 -1010 1022 1498 -1498 -1022 1010 1992 -1750 -1239 -784 -372 -42 43 158 379 518 1259 -1873"/>
        <stop parkingArea="parkingArea_1498_1_109" duration="1200"/>
    </vehicle>

    <vehicle id="passenger_78_tr" type="passenger" depart="6.6">
        <route edges="1487 -1487 1489 2858 -2858 -1489 1487"/>
        <stop parkingArea="parkingArea_2858_2_110" duration="1200"/>
    </vehicle>

    <vehicle id="passenger_51_tr" type="passenger" depart="7.0">
        <route edges="-1762 -1258 -788 -372 -42 43 158 379 518 1267 1870 2505 3517 4922 6049 -6049 -4922 -3517 -2505 -1870 -1267 -518 -379 -158 -43 42 372 788 1258 1762 -1762"/>
        <stop parkingArea="parkingArea_6049_1_23" duration="1200"/>
    </vehicle>

    <vehicle id="passenger_445_tr" type="passenger" depart="8.56">
        <route edges="5904 -5799 -4675 -3903 -3191 -2384 -2347 -1237 -784 -372 -42 43 158 379 518 1267 1870 2505 3517 4922 6049 -6049 -4922 -3517 -2505 -1870 -1267 -518 -379 -158 -43 42 372 788 1258 1762 2386 4022 4045 4793 5904"/>
        <stop parkingArea="parkingArea_6049_1_23" duration="1200"/>
    </vehicle>

    <vehicle id="passenger_185_tr" type="passenger" depart="9.22">
        <route edges="-5931 -4808 -4045 -4022 -2386 -1762 -1258 -788 -372 -42 43 158 379 520 894 1281 1881 2625 -2625 2609 -3411 -1263 -518 -379 -158 -43 42 372 788 1258 1766 2397 4809 5903 7161 -7264 -5931"/>
        <stop parkingArea="parkingArea_2625_1_5" duration="1200"/>
    </vehicle>

    <vehicle id="passenger_790_tr" type="passenger" depart="10.49">
        <route edges="4948 -4948 -4260 -3530 -1872 -1267 -518 -379 -158 -43 -15 3 19 51 402 752 1132 2340 3681 5650 -5650 -3681 -2340 -1132 -752 -402 -51 -19 -3 15 43 158 379 518 1267 1872 3530 4260 4948"/>
        <stop parkingArea="parkingArea_5650_1_10" duration="1200"/>
    </vehicle>

    <vehicle id="passenger_234_tr" type="passenger" depart="13.63">
        <route edges="4254 -4254 -3530 -1872 -1267 -518 -379 -158 -43 42 372 784 1247 -1248 -788 -372 -42 43 158 379 518 1267 1872 3530 4254"/>
        <stop parkingArea="parkingArea_-1248_2_57" duration="1200"/>
    </vehicle>

    <vehicle id="passenger_563_tr" type="passenger" depart="13.88">
        <route edges="4794 -4681 -3903 -3191 -2384 -2347 -1237 -784 -372 -26 24 52 268 400 1514 2235 -2341 2345 3068 -2962 -2231 -1514 -400 -268 -52 -24 26 372 788 1258 1762 2386 4022 4045 4794"/>
        <stop parkingArea="parkingArea_2345_2_96" duration="1200"/>
    </vehicle>

    <vehicle id="passenger_141_tr" type="passenger" depart="14.04">
        <route edges="2964 -2964 -2231 -1514 -400 -268 -52 -24 26 372 788 1258 1762 2388 -2388 -1762 -1258 -788 -372 -26 24 52 268 400 1514 2231 2964"/>
        <stop parkingArea="parkingArea_-2388_0_53" duration="1200"/>
    </vehicle>

    <vehicle id="passenger_45_tr" type="passenger" depart="17.7">
        <route edges="2231 -2231 -1514 -400 386 648 1010 1992 -1750 -1239 -784 -372 -26 24 52 268 400 1514 2231"/>
        <stop parkingArea="parkingArea_-1239_1_90" duration="1200"/>
    </vehicle>

    <vehicle id="passenger_599_tr" type="passenger" depart="17.91">
        <route edges="3559 -1498 -1022 1010 1992 -1750 -1239 -784 -372 -42 43 158 379 520 894 1281 1881 2625 3543 -3543 -2625 2609 -3411 -1263 -518 -379 -158 -43 42 372 784 1239 1750 -1992 -1010 1022 1498 -3559 3559"/>
        <stop parkingArea="parkingArea_3543_1_4" duration="1200"/>
    </vehicle>

    <vehicle id="passenger_784_tr" type="passenger" depart="19.44">
        <route edges="-1489 -1016 1010 1992 -1750 -1239 -784 -372 -42 43 158 379 518 1267 1872 3518 4149 4811 -4920 -3517 -2505 -1870 -1267 -518 -379 -158 -43 42 372 784 1239 1750 -1992 -1010 1022 1490 -1489"/>
        <stop parkingArea="parkingArea_-4920_1_24" duration="1200"/>
    </vehicle>

    <vehicle id="passenger_578_tr" type="passenger" depart="20.54">
        <route edges="-6727 -5510 -4529 -3565 -1498 -1022 1010 1992 -1750 -1239 -784 -372 -42 43 158 379 518 1267 1872 3530 4260 -4260 -3530 -1872 -1267 -518 -379 -158 -43 42 372 784 1237 2346 2349 -2739 2738 -2016 1994 2748 3557 6590 -6727"/>
        <stop parkingArea="parkingArea_-4260_1_31" duration="1200"/>
    </vehicle>

    <vehicle id="passenger_321_tr" type="passenger" depart="21.0">
        <route edges="-6040 6034 -4254 -3530 -1872 -1267 -518 -379 -158 -43 -15 3 19 51 402 752 1132 2340 3681 5626 -5626 -3681 -2340 -1132 -752 -402 -51 -19 -3 15 43 158 379 518 1267 1872 3530 4254 -6034 6040 -6040"/>
        <stop parkingArea="parkingArea_5626_1_11" duration="1200"/>
    </vehicle>

    <vehicle id="passenger_28_tr" type="passenger" depart="22.79">
        <route edges="-3083 3087 3797 4652 -4652 -3797 3795 -3794 -3083"/>
        <stop parkingArea="parkingArea_-4652_1_70" duration="1200"/>
    </vehicle>

    <vehicle id="passenger_500_tr" type="passenger" depart="24.02">
        <route edges="-3087 3087 3799 4672 -4672 -3799 -3087"/>
        <stop parkingArea="parkingArea_-4672_2_65" duration="1200"/>
    </vehicle>

    <vehicle id="passenger_65_tr" type="passenger" depart="24.76">
        <route edges="-4686 4682 -4673 -3784 -3083 3081 -3558 -2016 -1487 -1016 -648 -386 382 -382 386 648 1016 1487 2016 3558 -3081 3083 3784 4673 -4682 4686 -4686"/>
        <stop parkingArea="parkingArea_-382_1_86" duration="1200"/>
    </vehicle>

    <vehicle id="passenger_299_tr" type="passenger" depart="26.4">
        <route edges="386 648 -648 -386 400 1514 2231 2964 4533 5517 6733 -6733 -5517 -4533 -2964 -2231 -1514 -400 386"/>
        <stop parkingArea="parkingArea_-6733_1_106" duration="1200"/>
    </vehicle>

    <vehicle id="passenger_681_tr" type="passenger" depart="26.76">
        <route edges="4275 -4274 -3530 -1872 -1267 -518 -379 -158 -43 42 372 784 1237 2346 2353 3087 3797 4664 -4664 -3797 -3087 -2353 -2346 -1237 -784 -372 -42 43 158 379 518 1267 1872 3538 4275"/>
        <stop parkingArea="parkingArea_4664_1_71" duration="1200"/>
    </vehicle>

    <vehicle id="passenger_738_tr" type="passenger" depart="28.01">
        <route edges="4260 -4260 -3530 -1872 -1267 -518 -379 -158 -43 42 372 784 1239 1750 -1992 -1010 1022 1498 3565 4529 5510 6727 -6590 -3557 -2748 -1994 2016 3558 -3080 -2354 -1750 -1239 -784 -372 -42 43 158 379 518 1267 1872 3530 4260"/>
        <stop parkingArea="parkingArea_-6590_1_113" duration="1200"/>
    </vehicle>

    <vehicle id="passenger_178_tr" type="passenger" depart="28.29">
        <route edges="-6261 -5052 -4279 -3538 -1872 -1267 1259 -1873 1881 2625 3541 4297 5162 -5162 -4297 -3541 -2625 -1881 1873 -1259 1267 1872 3538 4291 -6255 6261 -6261"/>
        <stop parkingArea="parkingArea_5162_1_2" duration="1200"/>
    </vehicle>

    <vehicle id="passenger_549_tr" type="passenger" depart="30.81">
        <route edges="-6483 -3544 -2635 -1883 1873 -1259 -518 -379 -158 -43 -15 3 23 -27 29 158 379 518 1259 -1873 1883 2635 3544 6483 -6483"/>
        <stop parkingArea="parkingArea_23_0_81" duration="1200"/>
    </vehicle>

    <vehicle id="passenger_287_tr" type="passenger" depart="31.63">
        <route edges="788 -788 -372 -42 43 158 379 520 894 1281 1873 -1259 -518 -379 -158 -43 42 372 788"/>
        <stop parkingArea="parkingArea_1873_1_13" duration="1200"/>
    </vehicle>

    <vehicle id="passenger_82_tr" type="passenger" depart="32.39">
        <route edges="51 -382 386 648 1010 1992 -1750 -1239 1247 1754 2372 -2372 -1754 -1248 -788 -372 -42 -15 3 19 51"/>
        <stop parkingArea="parkingArea_2372_1_59" duration="1200"/>
    </vehicle>

    <vehicle id="passenger_146_tr" type="passenger" depart="32.56">
        <route edges="6255 -4291 -3538 -1872 -1267 -518 -379 -158 -43 42 -26 -5 11 41 -373 379 518 1267 1872 3538 4291 -6255 6255"/>
        <stop parkingArea="parkingArea_-5_0_79" duration="1200"/>
    </vehicle>

    <vehicle id="passenger_540_tr" type="passenger" depart="33.19">
        <route edges="4809 5903 7161 -7264 -5931 -4808 -4045 -3308 -2388 2396 4809"/>
        <stop parkingArea="parkingArea_-4808_1_47" duration="1200"/>
    </vehicle>

    <vehicle id="passenger_320_tr" type="passenger" depart="33.36">
        <route edges="1259 -1259 -518 -379 -158 -43 -15 3 19 51 402 752 1132 2340 3681 5626 -5626 -3681 -2340 -1132 -752 -402 -51 -19 -3 15 43 158 379 518 1259"/>
        <stop parkingArea="parkingArea_5626_1_11" duration="1200"/>
    </vehicle>

    <vehicle id="passenger_468_tr" type="passenger" depart="34.11">
        <route edges="4291 -6255 6255 -4291 -3538 3518 -2503 2503 -3518 3538 4291"/>
        <stop parkingArea="parkingArea_-2503_2_34" duration="1200"/>
    </vehicle>

    <vehicle id="passenger_170_tr" type="passenger" depart="34.94">
        <route edges="-3797 -3087 -2353 -1740 1750 -1992 -1010 -648 -386 382 402 752 1132 2340 3681 5626 -5626 -3681 -2340 -1132 -752 -402 -382 386 648 1016 1487 2016 3558 -3081 3087 3797 -3797"/>
        <stop parkingArea="parkingArea_5626_1_11" duration="1200"/>
    </vehicle>

    <vehicle id="passenger_769_tr" type="passenger" depart="37.2">
        <route edges="5515 -5515 -4533 -2964 -2231 -1514 -400 -268 268 400 1514 2231 2964 4533 5515"/>
        <stop parkingArea="parkingArea_268_0_83" duration="1200"/>
    </vehicle>

    <vehicle id="passenger_732_tr" type="passenger" depart="37.62">
        <route edges="-4642 4642 -4531 -2964 -2231 -1514 -400 -268 -52 -24 26 372 784 1237 2347 2384 3191 3903 4681 -4794 -4045 -3308 -2388 -1762 -1258 -788 -372 -26 24 52 268 400 1514 2231 2964 4531 -4642"/>
        <stop parkingArea="parkingArea_-4794_2_45" duration="1200"/>
    </vehicle>

    <vehicle id="passenger_558_tr" type="passenger" depart="38.68">
        <route edges="-2964 -2231 -1514 -400 -268 -52 -24 26 -42 43 158 379 518 1259 -906 -520 -379 -158 -43 42 -26 24 52 268 400 1514 2231 2964 -2964"/>
        <stop parkingArea="parkingArea_-906_1_14" duration="1200"/>
    </vehicle>

    <vehicle id="passenger_651_tr" type="passenger" depart="39.47">
        <route edges="1991 2739 -2349 -2346 -1237 -784 -372 -42 43 158 379 518 1267 1872 3518 -2503 -1870 -1267 -518 -379 -158 -43 42 372 784 1239 1750 -1992 1991"/>
        <stop parkingArea="parkingArea_-2503_2_34" duration="1200"/>
    </vehicle>

    <vehicle id="passenger_546_tr" type="passenger" depart="40.64">
        <route edges="-3530 -1872 -1267 -518 -379 -158 -43 42 372 784 1239 1750 -1992 -1010 1022 1494 2124 -2227 -1514 -400 -268 -52 -24 26 -42 43 158 379 518 1267 1872 3530 -3530"/>
        <stop parkingArea="parkingArea_-2227_1_107" duration="1200"/>
    </vehicle>

    <vehicle id="passenger_774_tr" type="passenger" depart="41.24">
        <route edges="-1514 -400 -268 -52 -24 26 -42 43 158 379 518 1267 1872 3530 4260 4948 -4948 -4260 -3530 -1872 -1267 -518 -379 -158 -43 42 -26 24 52 268 400 1514 -1514"/>
        <stop parkingArea="parkingArea_-4948_1_30" duration="1200"/>
    </vehicle>

    <vehicle id="passenger_544_tr" type="passenger" depart="44.22">
        <route edges="3681 -3681 -2340 -1132 -752 780 1634 2345 3072 4646 -6729 6729 -4646 -3072 -2345 -1634 -780 752 1132 2340 3681"/>
        <stop parkingArea="parkingArea_-6729_1_99" duration="1200"/>
    </vehicle>

    <vehicle id="passenger_286_tr" type="passenger" depart="44.33">
        <route edges="-2740 2740 -1490 -1022 1010 1992 -1750 -1239 -784 -372 -42 43 158 379 518 1267 1870 2505 3517 4922 6049 -6049 -4922 -3517 -2505 -1870 -1267 -518 -379 -158 -43 42 372 784 1239 1750 -1992 -1010 1022 1490 -2740"/>
        <stop parkingArea="parkingArea_6049_1_23" duration="1200"/>
    </vehicle>

    <vehicle id="passenger_93_tr" type="passenger" depart="45.3">
        <route edges="-5272 -4403 -3554 -2635 -1883 1873 -1259 -518 -379 -158 -43 42 372 784 1247 -1248 -788 -372 -42 43 158 379 518 1259 -1873 1883 2635 3554 4403 5272 -5272"/>
        <stop parkingArea="parkingArea_-1248_2_57" duration="1200"/>
    </vehicle>

    <vehicle id="passenger_212_tr" type="passenger" depart="45.48">
        <route edges="1010 1992 -1750 -1239 -784 -372 -42 43 158 379 518 1259 -1259 -518 -379 -158 -43 42 372 784 1239 1750 -1992 -1010 1010"/>
        <stop parkingArea="parkingArea_-1259_1_15" duration="1200"/>
    </vehicle>

    <vehicle id="passenger_748_tr" type="passenger" depart="46.12">
        <route edges="3191 -3191 -2384 -2347 -1237 -784 -372 -42 -15 3 19 51 402 752 1130 -1133 -754 -402 -382 -268 -52 -24 26 372 784 1237 2347 2384 3191"/>
        <stop parkingArea="parkingArea_-754_1_18" duration="1200"/>
    </vehicle>

    <vehicle id="passenger_534_tr" type="passenger" depart="46.49">
        <route edges="5911 -5910 -4793 -4045 -4022 -2386 -1762 -1258 -788 -372 -26 24 52 268 382 402 780 -782 781 -400 -268 -52 -24 26 372 788 1258 1762 2386 4022 4045 4808 5911"/>
        <stop parkingArea="parkingArea_780_1_94" duration="1200"/>
    </vehicle>

    <vehicle id="passenger_488_tr" type="passenger" depart="46.65">
        <route edges="2396 -2397 -1766 -1258 1248 -1248 1258 1762 2396"/>
        <stop parkingArea="parkingArea_-1248_2_57" duration="1200"/>
    </vehicle>

    <vehicle id="passenger_86_tr" type="passenger" depart="48.37">
        <route edges="520 906 -1873 1873 -1259 -518 520"/>
        <stop parkingArea="parkingArea_-1873_1_12" duration="1200"/>
    </vehicle>

    <vehicle id="passenger_244_tr" type="passenger" depart="48.52">
        <route edges="3539 -906 -520 -379 -158 -43 42 372 784 1237 2347 2372 -2372 -1754 -1248 -788 -372 -42 43 158 379 518 1263 3411 3539"/>
        <stop parkingArea="parkingArea_2372_1_59" duration="1200"/>
    </vehicle>

    <vehicle id="passenger_512_tr" type="passenger" depart="49.58">
        <route edges="-5650 -3681 -2340 -1132 -752 780 1634 2341 2965 -2965 -2341 -1634 -780 752 1132 2340 3681 5650 -5650"/>
        <stop parkingArea="parkingArea_-2965_1_101" duration="1200"/>
    </vehicle>

    <vehicle id="passenger_103_tr" type="passenger" depart="49.87">
        <route edges="-51 -19 -3 15 43 158 379 520 894 1281 1881 2625 3543 -3543 -2625 2609 -3411 -1263 -518 -379 -158 -43 -15 3 19 51 -51"/>
        <stop parkingArea="parkingArea_3543_1_4" duration="1200"/>
    </vehicle>

    <vehicle id="passenger_3_tr" type="passenger" depart="49.93">
        <route edges="5931 7264 -7161 -5903 -4809 -2397 -1766 -1258 -788 -372 -26 24 52 268 382 402 752 1132 2340 3681 5650 -5650 -3681 -2340 -1132 -752 -402 -51 -19 -3 15 42 372 788 1258 1762 2386 4022 4045 4808 5931"/>
        <stop parkingArea="parkingArea_5650_1_10" duration="1200"/>
    </vehicle>

    <vehicle id="passenger_773_tr" type="passenger" depart="50.63">
        <route edges="4403 5272 -5272 -4403 -3554 -2635 -1883 1873 -1259 -518 -379 -158 -43 -15 3 19 51 402 752 1132 2340 3681 5650 -5650 -3681 -2340 -1132 -752 -402 -51 -19 -3 15 43 158 379 518 1259 -1873 1883 2635 3554 4403"/>
        <stop parkingArea="parkingArea_5650_1_10" duration="1200"/>
    </vehicle>

    <vehicle id="passenger_123_tr" type="passenger" depart="50.82">
        <route edges="-5903 -4809 -2397 -1766 -1258 -788 -372 -42 43 158 379 518 1267 1872 3518 -2503 -1870 -1267 -518 -379 -158 -43 42 372 788 1258 1766 2397 4809 5903 7161 -7264 7264 -7161 -5903"/>
        <stop parkingArea="parkingArea_-2503_2_34" duration="1200"/>
    </vehicle>

    <vehicle id="passenger_565_tr" type="passenger" depart="50.89">
        <route edges="3919 -3919 -3195 -2384 -2347 -1237 -784 -372 -42 43 158 379 520 894 1281 1881 2625 3543 -3543 -2625 2609 -3411 -1263 -518 -379 -158 -43 42 372 784 1237 2347 2384 3195 3919"/>
        <stop parkingArea="parkingArea_3543_1_4" duration="1200"/>
    </vehicle>

    <vehicle id="passenger_366_tr" type="passenger" depart="52.95">
        <route edges="3308 -4022 -2386 -1762 -1258 -788 -372 -26 24 52 268 400 1514 2231 2964 4531 -4642 -3072 -2345 -1634 -782 781 -400 -268 -52 -24 26 372 788 1258 1762 2388 3308"/>
        <stop parkingArea="parkingArea_-3072_2_97" duration="1200"/>
    </vehicle>

    <vehicle id="passenger_554_tr" type="passenger" depart="53.42">
        <route edges="1263 3411 -3411 -1263 -518 -379 -158 -43 42 -26 -5 11 41 -373 379 518 1263"/>
        <stop parkingArea="parkingArea_-5_0_79" duration="1200"/>
    </vehicle>

    <vehicle id="passenger_414_tr" type="passenger" depart="54.16">
        <route edges="-4279 -3538 -1872 -1267 -518 -379 -158 -43 42 372 784 1237 2346 2353 3087 3799 4672 -4672 -3799 -3087 -2353 -2346 -1237 -784 -372 -42 43 158 379 518 1267 1872 3538 4291 -6255 -5052 -4279"/>
        <stop parkingArea="parkingArea_-4672_2_65" duration="1200"/>
    </vehicle>

    <vehicle id="passenger_27_tr" type="passenger" depart="54.55">
        <route edges="1267 -1267 -518 -379 -158 -43 42 372 784 1239 1750 -1992 -1010 1022 1494 2124 -2227 -1514 -400 -268 -52 -24 26 -42 43 158 379 518 1267"/>
        <stop parkingArea="parkingArea_-2227_1_107" duration="1200"/>
    </vehicle>

    <vehicle id="passenger_387_tr" type="passenger" depart="54.6">
        <route edges="4675 -4675 -3903 -3191 3191 3903 4675"/>
        <stop parkingArea="parkingArea_-3191_1_56" duration="1200"/>
    </vehicle>

    <vehicle id="passenger_574_tr" type="passenger" depart="54.86">
        <route edges="-6728 -5510 -4529 -3565 -1498 -1022 -648 -386 382 402 780 -780 -402 -382 386 648 1022 1498 3565 4525 -6728"/>
        <stop parkingArea="parkingArea_780_1_94" duration="1200"/>
    </vehicle>

    <vehicle id="passenger_73_tr" type="passenger" depart="54.9">
        <route edges="-2124 -1494 -1022 1010 1992 -1750 -1239 -784 -372 -42 43 158 379 518 1267 1872 3518 -2503 -1870 -1267 -518 -379 -158 -43 42 -26 24 52 268 400 1514 2227 -2124"/>
        <stop parkingArea="parkingArea_-2503_2_34" duration="1200"/>
    </vehicle>

    <vehicle id="passenger_521_tr" type="passenger" depart="55.42">
        <route edges="-52 52 268 386 648 1022 1498 3565 4529 5506 -5506 -4529 -3565 -1498 -1022 -648 -386 -268 -52"/>
        <stop parkingArea="parkingArea_-5506_1_118" duration="1200"/>
    </vehicle>

    <vehicle id="passenger_269_tr" type="passenger" depart="55.58">
        <route edges="-6731 -5515 -4533 -2964 -2231 -1514 -400 -268 -52 -24 26 372 784 1237 2347 2384 3191 3903 4675 5799 -5904 -4793 -4045 -3308 -2388 -1762 -1258 -788 -372 -26 24 52 268 400 1514 2231 2964 4533 5515 6731 -6731"/>
        <stop parkingArea="parkingArea_-5904_2_46" duration="1200"/>
    </vehicle>

    <vehicle id="passenger_410_tr" type="passenger" depart="55.73">
        <route edges="-402 -51 -19 -3 15 43 158 379 520 894 1281 1881 2625 3541 4297 5162 -5162 -4297 -3541 -2625 2609 -3411 -1263 -518 -379 -158 -43 -15 3 19 51 402 -402"/>
        <stop parkingArea="parkingArea_5162_1_2" duration="1200"/>
    </vehicle>

    <vehicle id="passenger_61_tr" type="passenger" depart="58.66">
        <route edges="2384 -2384 -2347 2346 2353 3087 -3087 -2353 -2346 2347 2384"/>
        <stop parkingArea="parkingArea_3087_2_62" duration="1200"/>
    </vehicle>

    <vehicle id="passenger_730_tr" type="passenger" depart="58.68">
        <route edges="780 -782 -412 -51 -19 -3 15 43 158 379 518 1267 1870 2503 -3518 -1872 -1267 -518 -379 -158 -43 -15 3 19 51 402 780"/>
        <stop parkingArea="parkingArea_2503_1_35" duration="1200"/>
    </vehicle>

    <vehicle id="passenger_434_tr" type="passenger" depart="58.88">
        <route edges="-7264 7264 -7161 -5903 -4809 -2397 -1766 -1258 -788 -372 -42 43 158 379 520 894 1281 1881 2625 3541 4297 -4297 -3541 -2625 2609 -3411 -1263 -518 -379 -158 -43 42 372 788 1258 1766 2397 4809 5903 7161 -7264"/>
        <stop parkingArea="parkingArea_4297_1_3" duration="1200"/>
    </vehicle>

    <vehicle id="passenger_362_tr" type="passenger" depart="58.98">
        <route edges="52 -52 -24 26 372 784 1239 1750 -1992 -1010 -648 -386 -268 -52 52"/>
        <stop parkingArea="parkingArea_1750_0_91" duration="1200"/>
    </vehicle>

    <vehicle id="passenger_24_tr" type="passenger" depart="59.03">
        <route edges="2016 -2016 -1487 -1016 -648 -386 382 402 752 1132 2340 3681 5626 -5626 -3681 -2340 -1132 -752 -402 -382 386 648 1016 1487 2016"/>
        <stop parkingArea="parkingArea_5626_1_11" duration="1200"/>
    </vehicle>

    <vehicle id="passenger_317_tr" type="passenger" depart="59.79">
        <route edges="-1494 -1022 1010 1992 -1750 1750 -1992 -1010 1022 1494 2124 -2227 2227 -2124 -1494"/>
        <stop parkingArea="parkingArea_1750_0_91" duration="1200"/>
    </vehicle>

    <vehicle id="passenger_785_tr" type="passenger" depart="60.71">
        <route edges="26 -42 43 158 379 518 1267 1872 3518 -2503 -1870 -1267 -518 -379 -158 -43 42 -26 26"/>
        <stop parkingArea="parkingArea_-2503_2_34" duration="1200"/>
    </vehicle>

    <vehicle id="passenger_304_tr" type="passenger" depart="61.44">
        <route edges="4022 -4022 -2386 -1762 -1258 -788 -372 -42 -15 3 19 51 402 752 1132 2340 3681 5650 -5650 -3681 -2340 -1132 -752 -402 -51 -19 -3 15 42 372 788 1258 1762 2386 4022"/>
        <stop parkingArea="parkingArea_5650_1_10" duration="1200"/>
    </vehicle>

    <vehicle id="passenger_553_tr" type="passenger" depart="62.27">
        <route edges="-402 -51 -19 -3 15 42 372 788 1258 1766 2397 4809 5903 7161 -7264 7264 -7161 -5903 -4809 -2397 -1766 -1258 -788 -372 -42 -15 3 19 51 402 -402"/>
        <stop parkingArea="parkingArea_-5903_2_49" duration="1200"/>
    </vehicle>

    <vehicle id="passenger_296_tr" type="passenger" depart="62.37">
        <route edges="5515 -5515 -4533 -2964 -2231 2227 -2124 -1494 1490 -1489 1489 -1490 1494 2124 -2227 2231 2964 4533 5515"/>
        <stop parkingArea="parkingArea_-1489_2_111" duration="1200"/>
    </vehicle>

    <vehicle id="passenger_491_tr" type="passenger" depart="62.43">
        <route edges="-6902 -5760 5762 -5762 5760 6902 -6902"/>
        <stop parkingArea="parkingArea_-5762_2_73" duration="1200"/>
    </vehicle>

    <vehicle id="passenger_111_tr" type="passenger" depart="62.75">
        <route edges="-3530 -1872 -1267 -518 -379 -158 -43 42 372 784 1237 2347 2384 3191 3903 -3903 -3191 -2384 -2347 -1237 -784 -372 -42 43 158 379 518 1267 1872 3530 -3530"/>
        <stop parkingArea="parkingArea_-3903_1_55" duration="1200"/>
    </vehicle>

    <vehicle id="passenger_47_tr" type="passenger" depart="62.84">
        <route edges="5910 -5911 -4808 -4045 -3308 -2388 -1762 -1258 -788 -372 -42 43 158 379 518 1267 1870 2503 -3518 -1872 -1267 -518 -379 -158 -43 42 372 788 1258 1762 2386 4022 4045 4793 5910"/>
        <stop parkingArea="parkingArea_2503_1_35" duration="1200"/>
    </vehicle>

    <vehicle id="passenger_482_tr" type="passenger" depart="63.73">
        <route edges="3518 -3518 -1872 -1267 -518 -379 -158 -43 42 372 784 1237 2346 2353 3087 3799 4672 5767 6919 -7022 -5781 -4672 -3799 -3087 -2353 -2346 -1237 -784 -372 -42 43 158 379 518 1267 1872 3518"/>
        <stop parkingArea="parkingArea_-7022_1_68" duration="1200"/>
    </vehicle>

    <vehicle id="passenger_458_tr" type="passenger" depart="64.38">
        <route edges="-4274 -3530 -1872 -1267 -518 -379 -158 -43 42 372 788 1258 1766 2397 4809 5903 7161 -7264 7264 -7161 -5903 -4809 -2397 -1766 -1258 -788 -372 -42 43 158 379 518 1267 1872 3538 4275 -4274"/>
        <stop parkingArea="parkingArea_-7264_1_48" duration="1200"/>
    </vehicle>

    <vehicle id="passenger_750_tr" type="passenger" depart="65.35">
        <route edges="-4507 -3565 -1498 -1022 1010 1992 -1750 -1239 1237 2347 2384 3191 3903 4675 5791 7047 -7046 -5787 -4675 -3903 -3191 -2384 -2347 2346 2349 -2739 -1991 -1010 1022 1498 3565 4507 5398 6598 -6598 -5398 -4507"/>
        <stop parkingArea="parkingArea_7047_2_42" duration="1200"/>
    </vehicle>

    <vehicle id="passenger_723_tr" type="passenger" depart="66.12">
        <route edges="-4507 4525 -6586 -3557 -2748 -1994 2016 3558 -3081 3083 3794 4650 -4650 -3794 -3083 3081 -3558 -2016 1994 2748 3557 6586 -4525 4507 5398 6598 -6598 -5398 -4507"/>
        <stop parkingArea="parkingArea_4650_1_63" duration="1200"/>
    </vehicle>

    <vehicle id="passenger_66_tr" type="passenger" depart="66.14">
        <route edges="-19 -3 15 43 158 379 518 1267 1872 3530 4254 -6034 6036 -6152 -4948 -4260 -3530 -1872 -1267 -518 -379 -158 -43 -15 3 19 -19"/>
        <stop parkingArea="parkingArea_-6152_1_29" duration="1200"/>
    </vehicle>

    <vehicle id="passenger_98_tr" type="passenger" depart="66.4">
        <route edges="1634 -1634 -780 -402 -382 386 648 1016 1487 2016 3558 -3081 3083 3794 4650 -4650 -3794 -3083 3081 -3558 -2016 -1487 -1016 -648 -386 382 402 780 1634"/>
        <stop parkingArea="parkingArea_4650_1_63" duration="1200"/>
    </vehicle>

    <vehicle id="passenger_533_tr" type="passenger" depart="68.13">
        <route edges="-7030 -5787 -4675 -3903 -3191 -2384 -2347 2346 2349 -2739 2738 -2738 2739 -2349 -2346 2347 2384 3191 3903 4675 5787 7030 -7030"/>
        <stop parkingArea="parkingArea_-2738_1_61" duration="1200"/>
    </vehicle>

    <vehicle id="passenger_543_tr" type="passenger" depart="68.66">
        <route edges="-6919 -5767 -4672 -3799 -3087 -2353 -2346 -1237 -784 -372 372 784 1237 2346 2353 3087 3799 4672 5781 7022 -6919"/>
        <stop parkingArea="parkingArea_-372_1_76" duration="1200"/>
    </vehicle>

    <vehicle id="passenger_456_tr" type="passenger" depart="69.33">
        <route edges="1022 -1022 1010 1992 -1750 1740 2353 3087 3799 4672 -4672 -3799 -3087 -2353 -1740 1750 -1992 -1010 1022"/>
        <stop parkingArea="parkingArea_-4672_2_65" duration="1200"/>
    </vehicle>

    <vehicle id="passenger_56_tr" type="passenger" depart="69.62">
        <route edges="-23 21 -24 26 372 784 1239 1740 2353 3087 3799 4672 5767 6919 -7022 -5781 -4672 -3799 -3087 -2353 -2346 -1237 -784 -372 -42 43 -29 27 -23"/>
        <stop parkingArea="parkingArea_6919_1_67" duration="1200"/>
    </vehicle>

    <vehicle id="passenger_255_tr" type="passenger" depart="71.23">
        <route edges="-4525 -3565 -1498 -1022 -648 -386 -268 -52 -21 23 -27 -11 5 24 52 268 386 648 1022 1498 3565 4525 -4525"/>
        <stop parkingArea="parkingArea_-11_1_78" duration="1200"/>
    </vehicle>

    <vehicle id="passenger_793_tr" type="passenger" depart="71.39">
        <route edges="-6710 -5506 5510 6727 -6590 6590 -6727 -5510 5506 6710 -6710"/>
        <stop parkingArea="parkingArea_-6590_1_113" duration="1200"/>
    </vehicle>

    <vehicle id="passenger_685_tr" type="passenger" depart="72.63">
        <route edges="2345 -2345 -1634 -780 -402 -382 386 648 1010 1992 -1750 -1239 1247 -1248 -788 -372 -42 -15 3 19 51 412 782 1634 2345"/>
        <stop parkingArea="parkingArea_-1248_2_57" duration="1200"/>
    </vehicle>

    <vehicle id="passenger_583_tr" type="passenger" depart="72.86">
        <route edges="-3797 -3087 -2353 -1740 -1239 -784 -372 -42 43 158 379 518 1267 1872 3518 -3518 -1872 -1267 -518 -379 -158 -43 42 372 784 1237 2346 2353 3087 3797 -3797"/>
        <stop parkingArea="parkingArea_3518_1_33" duration="1200"/>
    </vehicle>

    <vehicle id="passenger_585_tr" type="passenger" depart="73.26">
        <route edges="-6045 -4922 -3517 -2505 -1870 -1267 -518 -379 -158 -43 42 372 784 1237 2346 2349 -2739 2738 -2738 2739 -2349 -2346 -1237 -784 -372 -42 43 158 379 518 1267 1870 2505 3517 4922 6045 -6045"/>
        <stop parkingArea="parkingArea_-2738_1_61" duration="1200"/>
    </vehicle>

    <vehicle id="passenger_120_tr" type="passenger" depart="74.2">
        <route edges="-5903 5903 7161 -7264 -5931 -4808 4808 5931 7264 -7161 -5903"/>
        <stop parkingArea="parkingArea_-4808_1_47" duration="1200"/>
    </vehicle>

    <vehicle id="passenger_528_tr" type="passenger" depart="74.5">